#\#CIF1.1
##########################################################################
#               Crystallographic Information Format file 
#               Produced by PyCifRW module
# 
#  This is a CIF file.  CIF has been adopted by the International
#  Union of Crystallography as the standard for data archiving and 
#  transmission.
#
#  For information on this file format, follow the CIF links at
#  http://www.iucr.org
##########################################################################

data_ZnFe(SiO3)2
_symmetry_space_group_name_H-M          'P 1'
_cell_length_a                          5.3104315
_cell_length_b                          9.16733254
_cell_length_c                          18.59312699
_cell_angle_alpha                       90.0
_cell_angle_beta                        90.0
_cell_angle_gamma                       90.0
_chemical_name_systematic               'Generated by pymatgen'
_symmetry_Int_Tables_number             1
_chemical_formula_structural            ZnFe(SiO3)2
_chemical_formula_sum                   'Zn8 Fe8 Si16 O48'
_cell_volume                            905.159746489
_cell_formula_units_Z                   8
loop_
  _symmetry_equiv_pos_site_id
  _symmetry_equiv_pos_as_xyz
   1  'x, y, z'
 
loop_
  _atom_site_type_symbol
  _atom_site_label
  _atom_site_symmetry_multiplicity
  _atom_site_fract_x
  _atom_site_fract_y
  _atom_site_fract_z
  _atom_site_attached_hydrogens
  _atom_site_B_iso_or_equiv
  _atom_site_occupancy
   Zn  Zn1  1  0.617236  0.152155  0.624514  0  .  1
   Zn  Zn2  1  0.382764  0.847845  0.375486  0  .  1
   Zn  Zn3  1  0.617236  0.652155  0.875486  0  .  1
   Zn  Zn4  1  0.117236  0.847845  0.875486  0  .  1
   Zn  Zn5  1  0.882764  0.152155  0.124514  0  .  1
   Zn  Zn6  1  0.382764  0.347845  0.124514  0  .  1
   Zn  Zn7  1  0.117236  0.347845  0.624514  0  .  1
   Zn  Zn8  1  0.882764  0.652155  0.375486  0  .  1
   Fe  Fe9  1  0.377308  0.988454  0.123096  0  .  1
   Fe  Fe10  1  0.622692  0.011546  0.876904  0  .  1
   Fe  Fe11  1  0.877308  0.011546  0.376904  0  .  1
   Fe  Fe12  1  0.122692  0.988454  0.623096  0  .  1
   Fe  Fe13  1  0.377308  0.488454  0.376904  0  .  1
   Fe  Fe14  1  0.622692  0.511546  0.623096  0  .  1
   Fe  Fe15  1  0.877308  0.511546  0.123096  0  .  1
   Fe  Fe16  1  0.122692  0.488454  0.876904  0  .  1
   Si  Si17  1  0.563584  0.661203  0.227758  0  .  1
   Si  Si18  1  0.711252  0.835059  0.525742  0  .  1
   Si  Si19  1  0.788748  0.835059  0.025742  0  .  1
   Si  Si20  1  0.936416  0.161203  0.772242  0  .  1
   Si  Si21  1  0.063584  0.338797  0.272242  0  .  1
   Si  Si22  1  0.436416  0.838797  0.727758  0  .  1
   Si  Si23  1  0.211252  0.664941  0.525742  0  .  1
   Si  Si24  1  0.711252  0.335059  0.974258  0  .  1
   Si  Si25  1  0.788748  0.335059  0.474258  0  .  1
   Si  Si26  1  0.936416  0.661203  0.727758  0  .  1
   Si  Si27  1  0.436416  0.338797  0.772242  0  .  1
   Si  Si28  1  0.563584  0.161203  0.272242  0  .  1
   Si  Si29  1  0.288748  0.164941  0.474258  0  .  1
   Si  Si30  1  0.063584  0.838797  0.227758  0  .  1
   Si  Si31  1  0.288748  0.664941  0.025742  0  .  1
   Si  Si32  1  0.211252  0.164941  0.974258  0  .  1
   O  O33  1  0.929599  0.503053  0.688538  0  .  1
   O  O34  1  0.302099  0.016780  0.934068  0  .  1
   O  O35  1  0.070401  0.496947  0.311462  0  .  1
   O  O36  1  0.711846  0.337929  0.062690  0  .  1
   O  O37  1  0.211846  0.162071  0.062690  0  .  1
   O  O38  1  0.917880  0.206219  0.948360  0  .  1
   O  O39  1  0.946195  0.661795  0.815888  0  .  1
   O  O40  1  0.053805  0.838205  0.315888  0  .  1
   O  O41  1  0.711846  0.837929  0.437310  0  .  1
   O  O42  1  0.946195  0.161795  0.684112  0  .  1
   O  O43  1  0.429599  0.496947  0.811462  0  .  1
   O  O44  1  0.788154  0.337929  0.562690  0  .  1
   O  O45  1  0.697901  0.983220  0.065932  0  .  1
   O  O46  1  0.446195  0.838205  0.815888  0  .  1
   O  O47  1  0.570401  0.003053  0.311462  0  .  1
   O  O48  1  0.302099  0.516780  0.565932  0  .  1
   O  O49  1  0.429599  0.996947  0.688538  0  .  1
   O  O50  1  0.167262  0.766220  0.697843  0  .  1
   O  O51  1  0.332738  0.766220  0.197843  0  .  1
   O  O52  1  0.582120  0.706219  0.051640  0  .  1
   O  O53  1  0.788154  0.837929  0.937310  0  .  1
   O  O54  1  0.553805  0.661795  0.315888  0  .  1
   O  O55  1  0.802099  0.483220  0.934068  0  .  1
   O  O56  1  0.167262  0.266220  0.802157  0  .  1
   O  O57  1  0.288154  0.162071  0.562690  0  .  1
   O  O58  1  0.553805  0.161795  0.184112  0  .  1
   O  O59  1  0.697901  0.483220  0.434068  0  .  1
   O  O60  1  0.211846  0.662071  0.437310  0  .  1
   O  O61  1  0.197901  0.516780  0.065932  0  .  1
   O  O62  1  0.667262  0.733780  0.697843  0  .  1
   O  O63  1  0.070401  0.996947  0.188538  0  .  1
   O  O64  1  0.832738  0.733780  0.197843  0  .  1
   O  O65  1  0.832738  0.233780  0.302157  0  .  1
   O  O66  1  0.802099  0.983220  0.565932  0  .  1
   O  O67  1  0.288154  0.662071  0.937310  0  .  1
   O  O68  1  0.197901  0.016780  0.434068  0  .  1
   O  O69  1  0.332738  0.266220  0.302157  0  .  1
   O  O70  1  0.082120  0.793781  0.051640  0  .  1
   O  O71  1  0.417880  0.793781  0.551640  0  .  1
   O  O72  1  0.667262  0.233780  0.802157  0  .  1
   O  O73  1  0.417880  0.293781  0.948360  0  .  1
   O  O74  1  0.582120  0.206219  0.448360  0  .  1
   O  O75  1  0.082120  0.293781  0.448360  0  .  1
   O  O76  1  0.446195  0.338205  0.684112  0  .  1
   O  O77  1  0.570401  0.503053  0.188538  0  .  1
   O  O78  1  0.917880  0.706219  0.551640  0  .  1
   O  O79  1  0.053805  0.338205  0.184112  0  .  1
   O  O80  1  0.929599  0.003053  0.811462  0  .  1
 
