#\#CIF1.1
##########################################################################
#               Crystallographic Information Format file 
#               Produced by PyCifRW module
# 
#  This is a CIF file.  CIF has been adopted by the International
#  Union of Crystallography as the standard for data archiving and 
#  transmission.
#
#  For information on this file format, follow the CIF links at
#  http://www.iucr.org
##########################################################################

data_CaMn4(SiO3)5
_symmetry_space_group_name_H-M          'P 1'
_cell_length_a                          6.80085493023
_cell_length_b                          7.81862589427
_cell_length_c                          12.0008113755
_cell_angle_alpha                       105.596892884
_cell_angle_beta                        92.4339351397
_cell_angle_gamma                       93.9244927034
_chemical_name_systematic               'Generated by pymatgen'
_symmetry_Int_Tables_number             1
_chemical_formula_structural            CaMn4(SiO3)5
_chemical_formula_sum                   'Ca2 Mn8 Si10 O30'
_cell_volume                            611.953027425
_cell_formula_units_Z                   2
loop_
  _symmetry_equiv_pos_site_id
  _symmetry_equiv_pos_as_xyz
   1  'x, y, z'
 
loop_
  _atom_site_type_symbol
  _atom_site_label
  _atom_site_symmetry_multiplicity
  _atom_site_fract_x
  _atom_site_fract_y
  _atom_site_fract_z
  _atom_site_attached_hydrogens
  _atom_site_B_iso_or_equiv
  _atom_site_occupancy
   Ca  Ca1  1  0.635409  0.045756  0.693286  0  .  1
   Ca  Ca2  1  0.364591  0.954244  0.306714  0  .  1
   Mn  Mn3  1  0.031397  0.117602  0.148322  0  .  1
   Mn  Mn4  1  0.125650  0.316672  0.445589  0  .  1
   Mn  Mn5  1  0.797070  0.305598  0.978209  0  .  1
   Mn  Mn6  1  0.202930  0.694402  0.021791  0  .  1
   Mn  Mn7  1  0.812542  0.492282  0.270436  0  .  1
   Mn  Mn8  1  0.968603  0.882397  0.851678  0  .  1
   Mn  Mn9  1  0.874350  0.683328  0.554411  0  .  1
   Mn  Mn10  1  0.187458  0.507718  0.729564  0  .  1
   Si  Si11  1  0.290660  0.538691  0.261230  0  .  1
   Si  Si12  1  0.495993  0.221772  0.125407  0  .  1
   Si  Si13  1  0.844459  0.926885  0.345384  0  .  1
   Si  Si14  1  0.155541  0.073115  0.654616  0  .  1
   Si  Si15  1  0.754989  0.746441  0.089441  0  .  1
   Si  Si16  1  0.504007  0.778228  0.874593  0  .  1
   Si  Si17  1  0.245011  0.253559  0.910559  0  .  1
   Si  Si18  1  0.638555  0.270161  0.470664  0  .  1
   Si  Si19  1  0.709340  0.461309  0.738770  0  .  1
   Si  Si20  1  0.361445  0.729839  0.529336  0  .  1
   O  O21  1  0.301544  0.943705  0.566070  0  .  1
   O  O22  1  0.883645  0.752529  0.388652  0  .  1
   O  O23  1  0.104527  0.399351  0.268152  0  .  1
   O  O24  1  0.254496  0.672637  0.183007  0  .  1
   O  O25  1  0.266031  0.796706  0.869157  0  .  1
   O  O26  1  0.299396  0.135951  0.778661  0  .  1
   O  O27  1  0.634898  0.316100  0.613224  0  .  1
   O  O28  1  0.961734  0.954545  0.676668  0  .  1
   O  O29  1  0.116355  0.247471  0.611348  0  .  1
   O  O30  1  0.418786  0.256596  0.413620  0  .  1
   O  O31  1  0.056728  0.156904  0.958926  0  .  1
   O  O32  1  0.700604  0.864049  0.221339  0  .  1
   O  O33  1  0.809419  0.401111  0.436308  0  .  1
   O  O34  1  0.895473  0.600649  0.731848  0  .  1
   O  O35  1  0.038266  0.045455  0.323332  0  .  1
   O  O36  1  0.943272  0.843096  0.041074  0  .  1
   O  O37  1  0.190581  0.598889  0.563692  0  .  1
   O  O38  1  0.581214  0.743404  0.586380  0  .  1
   O  O39  1  0.806821  0.552670  0.100178  0  .  1
   O  O40  1  0.444784  0.256783  0.995801  0  .  1
   O  O41  1  0.555216  0.743217  0.004199  0  .  1
   O  O42  1  0.193179  0.447330  0.899822  0  .  1
   O  O43  1  0.516901  0.578888  0.778507  0  .  1
   O  O44  1  0.745504  0.327363  0.816993  0  .  1
   O  O45  1  0.698456  0.056295  0.433930  0  .  1
   O  O46  1  0.658838  0.928177  0.851575  0  .  1
   O  O47  1  0.365102  0.683900  0.386777  0  .  1
   O  O48  1  0.483099  0.421112  0.221493  0  .  1
   O  O49  1  0.733969  0.203294  0.130843  0  .  1
   O  O50  1  0.341162  0.071823  0.148425  0  .  1
 
