#\#CIF1.1
##########################################################################
#               Crystallographic Information Format file 
#               Produced by PyCifRW module
# 
#  This is a CIF file.  CIF has been adopted by the International
#  Union of Crystallography as the standard for data archiving and 
#  transmission.
#
#  For information on this file format, follow the CIF links at
#  http://www.iucr.org
##########################################################################

data_CaFeP2O7
_symmetry_space_group_name_H-M          'P 1'
_cell_length_a                          6.2296333916
_cell_length_b                          6.58649662963
_cell_length_c                          7.28096720257
_cell_angle_alpha                       82.9129646721
_cell_angle_beta                        87.8705390259
_cell_angle_gamma                       68.9136102447
_chemical_name_systematic               'Generated by pymatgen'
_symmetry_Int_Tables_number             1
_chemical_formula_structural            CaFeP2O7
_chemical_formula_sum                   'Ca2 Fe2 P4 O14'
_cell_volume                            276.606131233
_cell_formula_units_Z                   2
loop_
  _symmetry_equiv_pos_site_id
  _symmetry_equiv_pos_as_xyz
   1  'x, y, z'
 
loop_
  _atom_site_type_symbol
  _atom_site_label
  _atom_site_symmetry_multiplicity
  _atom_site_fract_x
  _atom_site_fract_y
  _atom_site_fract_z
  _atom_site_attached_hydrogens
  _atom_site_B_iso_or_equiv
  _atom_site_occupancy
   Ca  Ca1  1  0.296700  0.712879  0.637415  0  .  1
   Ca  Ca2  1  0.703297  0.287154  0.362582  0  .  1
   Fe  Fe3  1  0.256009  0.127844  0.188188  0  .  1
   Fe  Fe4  1  0.743979  0.872193  0.811731  0  .  1
   P  P5  1  0.167544  0.657093  0.117091  0  .  1
   P  P6  1  0.832448  0.342865  0.882918  0  .  1
   P  P7  1  0.237974  0.217566  0.619033  0  .  1
   P  P8  1  0.761982  0.782455  0.380986  0  .  1
   O  O9  1  0.081727  0.731430  0.915918  0  .  1
   O  O10  1  0.918273  0.268446  0.084072  0  .  1
   O  O11  1  0.253962  0.817042  0.196160  0  .  1
   O  O12  1  0.745928  0.183020  0.803786  0  .  1
   O  O13  1  0.334592  0.417942  0.143672  0  .  1
   O  O14  1  0.665529  0.582015  0.856411  0  .  1
   O  O15  1  0.636061  0.629797  0.452581  0  .  1
   O  O16  1  0.363937  0.370170  0.547415  0  .  1
   O  O17  1  0.105999  0.165691  0.466473  0  .  1
   O  O18  1  0.894044  0.834318  0.533542  0  .  1
   O  O19  1  0.057769  0.351052  0.763947  0  .  1
   O  O20  1  0.606908  0.998788  0.273469  0  .  1
   O  O21  1  0.393123  0.001292  0.726563  0  .  1
   O  O22  1  0.942219  0.648947  0.236047  0  .  1
 
