#\#CIF1.1
##########################################################################
#               Crystallographic Information Format file 
#               Produced by PyCifRW module
# 
#  This is a CIF file.  CIF has been adopted by the International
#  Union of Crystallography as the standard for data archiving and 
#  transmission.
#
#  For information on this file format, follow the CIF links at
#  http://www.iucr.org
##########################################################################

data_CaTi(SiO3)2
_symmetry_space_group_name_H-M          'P 1'
_cell_length_a                          5.25938757894
_cell_length_b                          6.83593969039
_cell_length_c                          6.83593990197
_cell_angle_alpha                       83.0021151527
_cell_angle_beta                        78.9639630731
_cell_angle_gamma                       78.9639670747
_chemical_name_systematic               'Generated by pymatgen'
_symmetry_Int_Tables_number             1
_chemical_formula_structural            CaTi(SiO3)2
_chemical_formula_sum                   'Ca2 Ti2 Si4 O12'
_cell_volume                            235.837967637
_cell_formula_units_Z                   2
loop_
  _symmetry_equiv_pos_site_id
  _symmetry_equiv_pos_as_xyz
   1  'x, y, z'
 
loop_
  _atom_site_type_symbol
  _atom_site_label
  _atom_site_symmetry_multiplicity
  _atom_site_fract_x
  _atom_site_fract_y
  _atom_site_fract_z
  _atom_site_attached_hydrogens
  _atom_site_B_iso_or_equiv
  _atom_site_occupancy
   Ca  Ca1  1  0.750000  0.297860  0.702140  0  .  1
   Ca  Ca2  1  0.250001  0.702140  0.297861  0  .  1
   Ti  Ti3  1  0.249999  0.078724  0.921277  0  .  1
   Ti  Ti4  1  0.749999  0.921278  0.078723  0  .  1
   Si  Si5  1  0.265522  0.196611  0.387527  0  .  1
   Si  Si6  1  0.234477  0.612473  0.803389  0  .  1
   Si  Si7  1  0.765522  0.387527  0.196611  0  .  1
   Si  Si8  1  0.734478  0.803389  0.612473  0  .  1
   O  O9  1  0.505729  0.331695  0.369523  0  .  1
   O  O10  1  0.994271  0.630476  0.668306  0  .  1
   O  O11  1  0.494272  0.668306  0.630477  0  .  1
   O  O12  1  0.005728  0.369524  0.331694  0  .  1
   O  O13  1  0.174706  0.119458  0.617044  0  .  1
   O  O14  1  0.325294  0.382955  0.880541  0  .  1
   O  O15  1  0.825294  0.880542  0.382956  0  .  1
   O  O16  1  0.674705  0.617044  0.119459  0  .  1
   O  O17  1  0.847685  0.223957  0.031533  0  .  1
   O  O18  1  0.652315  0.968467  0.776042  0  .  1
   O  O19  1  0.347684  0.031533  0.223958  0  .  1
   O  O20  1  0.152316  0.776043  0.968467  0  .  1
 
