#\#CIF1.1
##########################################################################
#               Crystallographic Information Format file 
#               Produced by PyCifRW module
# 
#  This is a CIF file.  CIF has been adopted by the International
#  Union of Crystallography as the standard for data archiving and 
#  transmission.
#
#  For information on this file format, follow the CIF links at
#  http://www.iucr.org
##########################################################################

data_Ba2AlFe3O8
_symmetry_space_group_name_H-M          'P 1'
_cell_length_a                          3.86602624014
_cell_length_b                          3.86603557011
_cell_length_c                          12.0520597008
_cell_angle_alpha                       89.9991518877
_cell_angle_beta                        90.0009884838
_cell_angle_gamma                       90.0000246053
_chemical_name_systematic               'Generated by pymatgen'
_symmetry_Int_Tables_number             1
_chemical_formula_structural            Ba2AlFe3O8
_chemical_formula_sum                   'Ba2 Al1 Fe3 O8'
_cell_volume                            180.132433903
_cell_formula_units_Z                   1
loop_
  _symmetry_equiv_pos_site_id
  _symmetry_equiv_pos_as_xyz
   1  'x, y, z'
 
loop_
  _atom_site_type_symbol
  _atom_site_label
  _atom_site_symmetry_multiplicity
  _atom_site_fract_x
  _atom_site_fract_y
  _atom_site_fract_z
  _atom_site_attached_hydrogens
  _atom_site_B_iso_or_equiv
  _atom_site_occupancy
   Ba  Ba1  1  0.500001  0.499997  0.166640  0  .  1
   Ba  Ba2  1  0.499995  0.499999  0.833381  0  .  1
   Al  Al3  1  0.499994  0.500015  0.499957  0  .  1
   Fe  Fe4  1  0.000006  0.000000  0.350600  0  .  1
   Fe  Fe5  1  0.999989  0.999992  0.999945  0  .  1
   Fe  Fe6  1  0.999993  0.000007  0.649355  0  .  1
   O  O7  1  0.000031  0.499994  0.397701  0  .  1
   O  O8  1  0.500015  0.999976  0.397704  0  .  1
   O  O9  1  0.499991  0.000000  0.000012  0  .  1
   O  O10  1  0.000003  0.999998  0.192895  0  .  1
   O  O11  1  0.999989  0.500010  0.602344  0  .  1
   O  O12  1  0.499993  0.000016  0.602346  0  .  1
   O  O13  1  -0.000000  0.000000  0.807108  0  .  1
   O  O14  1  0.000000  0.499994  0.000012  0  .  1
 
