#\#CIF1.1
##########################################################################
#               Crystallographic Information Format file 
#               Produced by PyCifRW module
# 
#  This is a CIF file.  CIF has been adopted by the International
#  Union of Crystallography as the standard for data archiving and 
#  transmission.
#
#  For information on this file format, follow the CIF links at
#  http://www.iucr.org
##########################################################################

data_Ca2AlCuO5
_symmetry_space_group_name_H-M          'P 1'
_cell_length_a                          5.27517739808
_cell_length_b                          5.62504897497
_cell_length_c                          8.29605696841
_cell_angle_alpha                       109.766283492
_cell_angle_beta                        108.460615159
_cell_angle_gamma                       90.0161085315
_chemical_name_systematic               'Generated by pymatgen'
_symmetry_Int_Tables_number             1
_chemical_formula_structural            Ca2AlCuO5
_chemical_formula_sum                   'Ca4 Al2 Cu2 O10'
_cell_volume                            218.149145687
_cell_formula_units_Z                   2
loop_
  _symmetry_equiv_pos_site_id
  _symmetry_equiv_pos_as_xyz
   1  'x, y, z'
 
loop_
  _atom_site_type_symbol
  _atom_site_label
  _atom_site_symmetry_multiplicity
  _atom_site_fract_x
  _atom_site_fract_y
  _atom_site_fract_z
  _atom_site_attached_hydrogens
  _atom_site_B_iso_or_equiv
  _atom_site_occupancy
   Ca  Ca1  1  0.115144  0.637660  0.214881  0  .  1
   Ca  Ca2  1  0.401055  0.923594  0.780625  0  .  1
   Ca  Ca3  1  0.901139  0.361709  0.781367  0  .  1
   Ca  Ca4  1  0.619405  0.077914  0.216293  0  .  1
   Al  Al5  1  0.287765  0.327952  0.498873  0  .  1
   Al  Al6  1  0.787062  0.673801  0.498200  0  .  1
   Cu  Cu7  1  0.496518  0.499664  0.998189  0  .  1
   Cu  Cu8  1  0.997371  0.999365  0.997870  0  .  1
   O  O9  1  0.623267  0.394064  0.500051  0  .  1
   O  O10  1  0.122099  0.607746  0.498427  0  .  1
   O  O11  1  0.611569  0.719759  0.293013  0  .  1
   O  O12  1  0.312264  0.279037  0.702510  0  .  1
   O  O13  1  0.112914  0.074677  0.296189  0  .  1
   O  O14  1  0.812995  0.927904  0.699886  0  .  1
   O  O15  1  0.231491  0.736251  0.965282  0  .  1
   O  O16  1  0.269070  0.259058  0.031537  0  .  1
   O  O17  1  0.767177  0.270324  0.028872  0  .  1
   O  O18  1  0.732216  0.731058  0.966057  0  .  1
 
