#\#CIF1.1
##########################################################################
#               Crystallographic Information Format file 
#               Produced by PyCifRW module
# 
#  This is a CIF file.  CIF has been adopted by the International
#  Union of Crystallography as the standard for data archiving and 
#  transmission.
#
#  For information on this file format, follow the CIF links at
#  http://www.iucr.org
##########################################################################

data_MnZn(SiO3)2
_symmetry_space_group_name_H-M          'P 1'
_cell_length_a                          5.34310495
_cell_length_b                          9.15366929
_cell_length_c                          18.75045353
_cell_angle_alpha                       90.0
_cell_angle_beta                        90.0
_cell_angle_gamma                       90.0
_chemical_name_systematic               'Generated by pymatgen'
_symmetry_Int_Tables_number             1
_chemical_formula_structural            MnZn(SiO3)2
_chemical_formula_sum                   'Mn8 Zn8 Si16 O48'
_cell_volume                            917.06622597
_cell_formula_units_Z                   8
loop_
  _symmetry_equiv_pos_site_id
  _symmetry_equiv_pos_as_xyz
   1  'x, y, z'
 
loop_
  _atom_site_type_symbol
  _atom_site_label
  _atom_site_symmetry_multiplicity
  _atom_site_fract_x
  _atom_site_fract_y
  _atom_site_fract_z
  _atom_site_attached_hydrogens
  _atom_site_B_iso_or_equiv
  _atom_site_occupancy
   Mn  Mn1  1  0.378472  0.986907  0.123163  0  .  1
   Mn  Mn2  1  0.621528  0.013093  0.876837  0  .  1
   Mn  Mn3  1  0.878472  0.013093  0.376837  0  .  1
   Mn  Mn4  1  0.121528  0.986907  0.623163  0  .  1
   Mn  Mn5  1  0.378472  0.486907  0.376837  0  .  1
   Mn  Mn6  1  0.621528  0.513093  0.623163  0  .  1
   Mn  Mn7  1  0.878472  0.513093  0.123163  0  .  1
   Mn  Mn8  1  0.121528  0.486907  0.876837  0  .  1
   Zn  Zn9  1  0.616777  0.150149  0.624719  0  .  1
   Zn  Zn10  1  0.383223  0.849851  0.375281  0  .  1
   Zn  Zn11  1  0.616777  0.650149  0.875281  0  .  1
   Zn  Zn12  1  0.116777  0.849851  0.875281  0  .  1
   Zn  Zn13  1  0.883223  0.150149  0.124719  0  .  1
   Zn  Zn14  1  0.383223  0.349851  0.124719  0  .  1
   Zn  Zn15  1  0.116777  0.349851  0.624719  0  .  1
   Zn  Zn16  1  0.883223  0.650149  0.375281  0  .  1
   Si  Si17  1  0.561803  0.661609  0.228237  0  .  1
   Si  Si18  1  0.708008  0.835087  0.525105  0  .  1
   Si  Si19  1  0.791992  0.835087  0.025105  0  .  1
   Si  Si20  1  0.938197  0.161609  0.771763  0  .  1
   Si  Si21  1  0.061803  0.338391  0.271763  0  .  1
   Si  Si22  1  0.438197  0.838391  0.728237  0  .  1
   Si  Si23  1  0.208008  0.664913  0.525105  0  .  1
   Si  Si24  1  0.708008  0.335087  0.974895  0  .  1
   Si  Si25  1  0.791992  0.335087  0.474895  0  .  1
   Si  Si26  1  0.938197  0.661609  0.728237  0  .  1
   Si  Si27  1  0.438197  0.338391  0.771763  0  .  1
   Si  Si28  1  0.561803  0.161609  0.271763  0  .  1
   Si  Si29  1  0.291992  0.164913  0.474895  0  .  1
   Si  Si30  1  0.061803  0.838391  0.228237  0  .  1
   Si  Si31  1  0.291992  0.664913  0.025105  0  .  1
   Si  Si32  1  0.208008  0.164913  0.974895  0  .  1
   O  O33  1  0.937427  0.502880  0.690396  0  .  1
   O  O34  1  0.291978  0.015223  0.935632  0  .  1
   O  O35  1  0.062573  0.497120  0.309604  0  .  1
   O  O36  1  0.708281  0.337109  0.062548  0  .  1
   O  O37  1  0.208281  0.162891  0.062548  0  .  1
   O  O38  1  0.918114  0.209170  0.948525  0  .  1
   O  O39  1  0.943852  0.663090  0.815607  0  .  1
   O  O40  1  0.056148  0.836910  0.315607  0  .  1
   O  O41  1  0.708281  0.837109  0.437452  0  .  1
   O  O42  1  0.943852  0.163090  0.684393  0  .  1
   O  O43  1  0.437427  0.497120  0.809604  0  .  1
   O  O44  1  0.791719  0.337109  0.562548  0  .  1
   O  O45  1  0.708022  0.984777  0.064368  0  .  1
   O  O46  1  0.443852  0.836910  0.815607  0  .  1
   O  O47  1  0.562573  0.002880  0.309604  0  .  1
   O  O48  1  0.291978  0.515223  0.564368  0  .  1
   O  O49  1  0.437427  0.997120  0.690396  0  .  1
   O  O50  1  0.169263  0.766549  0.698352  0  .  1
   O  O51  1  0.330737  0.766549  0.198352  0  .  1
   O  O52  1  0.581886  0.709170  0.051475  0  .  1
   O  O53  1  0.791719  0.837109  0.937452  0  .  1
   O  O54  1  0.556148  0.663090  0.315607  0  .  1
   O  O55  1  0.791978  0.484777  0.935632  0  .  1
   O  O56  1  0.169263  0.266549  0.801648  0  .  1
   O  O57  1  0.291719  0.162891  0.562548  0  .  1
   O  O58  1  0.556148  0.163090  0.184393  0  .  1
   O  O59  1  0.708022  0.484777  0.435632  0  .  1
   O  O60  1  0.208281  0.662891  0.437452  0  .  1
   O  O61  1  0.208022  0.515223  0.064368  0  .  1
   O  O62  1  0.669263  0.733451  0.698352  0  .  1
   O  O63  1  0.062573  0.997120  0.190396  0  .  1
   O  O64  1  0.830737  0.733451  0.198352  0  .  1
   O  O65  1  0.830737  0.233451  0.301648  0  .  1
   O  O66  1  0.791978  0.984777  0.564368  0  .  1
   O  O67  1  0.291719  0.662891  0.937452  0  .  1
   O  O68  1  0.208022  0.015223  0.435632  0  .  1
   O  O69  1  0.330737  0.266549  0.301648  0  .  1
   O  O70  1  0.081886  0.790830  0.051475  0  .  1
   O  O71  1  0.418114  0.790830  0.551475  0  .  1
   O  O72  1  0.669263  0.233451  0.801648  0  .  1
   O  O73  1  0.418114  0.290830  0.948525  0  .  1
   O  O74  1  0.581886  0.209170  0.448525  0  .  1
   O  O75  1  0.081886  0.290830  0.448525  0  .  1
   O  O76  1  0.443852  0.336910  0.684393  0  .  1
   O  O77  1  0.562573  0.502880  0.190396  0  .  1
   O  O78  1  0.918114  0.709170  0.551475  0  .  1
   O  O79  1  0.056148  0.336910  0.184393  0  .  1
   O  O80  1  0.937427  0.002880  0.809604  0  .  1
 
