#\#CIF1.1
##########################################################################
#               Crystallographic Information Format file 
#               Produced by PyCifRW module
# 
#  This is a CIF file.  CIF has been adopted by the International
#  Union of Crystallography as the standard for data archiving and 
#  transmission.
#
#  For information on this file format, follow the CIF links at
#  http://www.iucr.org
##########################################################################

data_MoP2O7
_symmetry_space_group_name_H-M          'P 1'
_cell_length_a                          6.51649016813
_cell_length_b                          6.48950089332
_cell_length_c                          7.1132226228
_cell_angle_alpha                       114.02513959
_cell_angle_beta                        92.0529521656
_cell_angle_gamma                       84.0071021534
_chemical_name_systematic               'Generated by pymatgen'
_symmetry_Int_Tables_number             1
_chemical_formula_structural            MoP2O7
_chemical_formula_sum                   'Mo2 P4 O14'
_cell_volume                            273.240429798
_cell_formula_units_Z                   2
loop_
  _symmetry_equiv_pos_site_id
  _symmetry_equiv_pos_as_xyz
   1  'x, y, z'
 
loop_
  _atom_site_type_symbol
  _atom_site_label
  _atom_site_symmetry_multiplicity
  _atom_site_fract_x
  _atom_site_fract_y
  _atom_site_fract_z
  _atom_site_attached_hydrogens
  _atom_site_B_iso_or_equiv
  _atom_site_occupancy
   Mo  Mo1  1  0.350289  0.909176  0.789063  0  .  1
   Mo  Mo2  1  0.649711  0.090824  0.210937  0  .  1
   P  P3  1  0.866187  0.766530  0.748284  0  .  1
   P  P4  1  0.384744  0.339487  0.647693  0  .  1
   P  P5  1  0.615256  0.660513  0.352307  0  .  1
   P  P6  1  0.133813  0.233470  0.251716  0  .  1
   O  O7  1  0.199034  0.304257  0.489922  0  .  1
   O  O8  1  0.585086  0.239937  0.523627  0  .  1
   O  O9  1  0.800966  0.695743  0.510078  0  .  1
   O  O10  1  0.348041  0.217989  0.786532  0  .  1
   O  O11  1  0.414914  0.760063  0.476373  0  .  1
   O  O12  1  0.330177  0.063108  0.129463  0  .  1
   O  O13  1  0.956213  0.084040  0.233350  0  .  1
   O  O14  1  0.616883  0.406514  0.213590  0  .  1
   O  O15  1  0.383117  0.593486  0.786410  0  .  1
   O  O16  1  0.912315  0.577585  0.809954  0  .  1
   O  O17  1  0.651959  0.782011  0.213468  0  .  1
   O  O18  1  0.087685  0.422415  0.190046  0  .  1
   O  O19  1  0.043787  0.915960  0.766650  0  .  1
   O  O20  1  0.669823  0.936891  0.870537  0  .  1
 
