#\#CIF1.1
##########################################################################
#               Crystallographic Information Format file 
#               Produced by PyCifRW module
# 
#  This is a CIF file.  CIF has been adopted by the International
#  Union of Crystallography as the standard for data archiving and 
#  transmission.
#
#  For information on this file format, follow the CIF links at
#  http://www.iucr.org
##########################################################################

data_BaAlCuNiO5
_symmetry_space_group_name_H-M          'P 1'
_cell_length_a                          3.71984187
_cell_length_b                          3.71984348001
_cell_length_c                          7.64818994001
_cell_angle_alpha                       90.0002146727
_cell_angle_beta                        89.9999512871
_cell_angle_gamma                       90.0000594546
_chemical_name_systematic               'Generated by pymatgen'
_symmetry_Int_Tables_number             1
_chemical_formula_structural            BaAlCuNiO5
_chemical_formula_sum                   'Ba1 Al1 Cu1 Ni1 O5'
_cell_volume                            105.829759664
_cell_formula_units_Z                   1
loop_
  _symmetry_equiv_pos_site_id
  _symmetry_equiv_pos_as_xyz
   1  'x, y, z'
 
loop_
  _atom_site_type_symbol
  _atom_site_label
  _atom_site_symmetry_multiplicity
  _atom_site_fract_x
  _atom_site_fract_y
  _atom_site_fract_z
  _atom_site_attached_hydrogens
  _atom_site_B_iso_or_equiv
  _atom_site_occupancy
   Ba  Ba1  1  1.000000  1.000000  0.974652  0  .  1
   Al  Al2  1  0.000002  0.000001  0.476675  0  .  1
   Cu  Cu3  1  0.499999  0.499999  0.244294  0  .  1
   Ni  Ni4  1  0.499999  0.499999  0.688994  0  .  1
   O  O5  1  -0.000001  0.499997  0.622576  0  .  1
   O  O6  1  0.499998  0.999998  0.622574  0  .  1
   O  O7  1  0.999999  0.500000  0.303038  0  .  1
   O  O8  1  0.499998  0.000000  0.303035  0  .  1
   O  O9  1  0.500000  0.500000  0.952081  0  .  1
 
