#\#CIF1.1
##########################################################################
#               Crystallographic Information Format file 
#               Produced by PyCifRW module
# 
#  This is a CIF file.  CIF has been adopted by the International
#  Union of Crystallography as the standard for data archiving and 
#  transmission.
#
#  For information on this file format, follow the CIF links at
#  http://www.iucr.org
##########################################################################

data_AlCu3(BiO3)4
_symmetry_space_group_name_H-M          'P 1'
_cell_length_a                          7.07709005701
_cell_length_b                          7.0765302933
_cell_length_c                          7.0783042137
_cell_angle_alpha                       109.332949834
_cell_angle_beta                        109.495341287
_cell_angle_gamma                       109.581975437
_chemical_name_systematic               'Generated by pymatgen'
_symmetry_Int_Tables_number             1
_chemical_formula_structural            AlCu3(BiO3)4
_chemical_formula_sum                   'Al1 Cu3 Bi4 O12'
_cell_volume                            272.897173253
_cell_formula_units_Z                   1
loop_
  _symmetry_equiv_pos_site_id
  _symmetry_equiv_pos_as_xyz
   1  'x, y, z'
 
loop_
  _atom_site_type_symbol
  _atom_site_label
  _atom_site_symmetry_multiplicity
  _atom_site_fract_x
  _atom_site_fract_y
  _atom_site_fract_z
  _atom_site_attached_hydrogens
  _atom_site_B_iso_or_equiv
  _atom_site_occupancy
   Al  Al1  1  0.000001  0.999998  0.999982  0  .  1
   Cu  Cu2  1  0.499993  0.999986  0.500003  0  .  1
   Cu  Cu3  1  0.500000  0.499997  0.999996  0  .  1
   Cu  Cu4  1  0.999998  0.499999  0.499996  0  .  1
   Bi  Bi5  1  0.499990  0.999990  -0.000000  0  .  1
   Bi  Bi6  1  0.000003  0.000010  0.499995  0  .  1
   Bi  Bi7  1  0.999997  0.499997  0.000004  0  .  1
   Bi  Bi8  1  0.500010  0.500003  0.499998  0  .  1
   O  O9  1  0.843791  0.324620  0.168400  0  .  1
   O  O10  1  0.156192  0.675368  0.831598  0  .  1
   O  O11  1  0.843698  0.675348  0.519053  0  .  1
   O  O12  1  0.324388  0.480504  0.156194  0  .  1
   O  O13  1  0.480543  0.156566  0.323899  0  .  1
   O  O14  1  0.167363  0.843375  0.323989  0  .  1
   O  O15  1  0.675650  0.831799  0.156211  0  .  1
   O  O16  1  0.519457  0.843429  0.676103  0  .  1
   O  O17  1  0.156326  0.324680  0.480959  0  .  1
   O  O18  1  0.675620  0.519508  0.843813  0  .  1
   O  O19  1  0.832638  0.156618  0.676018  0  .  1
   O  O20  1  0.324343  0.168203  0.843790  0  .  1
 
