#\#CIF1.1
##########################################################################
#               Crystallographic Information Format file 
#               Produced by PyCifRW module
# 
#  This is a CIF file.  CIF has been adopted by the International
#  Union of Crystallography as the standard for data archiving and 
#  transmission.
#
#  For information on this file format, follow the CIF links at
#  http://www.iucr.org
##########################################################################

data_Mg3Cr2(SiO4)3
_symmetry_space_group_name_H-M          'P 1'
_cell_length_a                          10.1845098529
_cell_length_b                          10.1845101053
_cell_length_c                          10.1845098
_cell_angle_alpha                       109.471221808
_cell_angle_beta                        109.471222323
_cell_angle_gamma                       109.471218465
_chemical_name_systematic               'Generated by pymatgen'
_symmetry_Int_Tables_number             1
_chemical_formula_structural            Mg3Cr2(SiO4)3
_chemical_formula_sum                   'Mg12 Cr8 Si12 O48'
_cell_volume                            813.202138511
_cell_formula_units_Z                   4
loop_
  _symmetry_equiv_pos_site_id
  _symmetry_equiv_pos_as_xyz
   1  'x, y, z'
 
loop_
  _atom_site_type_symbol
  _atom_site_label
  _atom_site_symmetry_multiplicity
  _atom_site_fract_x
  _atom_site_fract_y
  _atom_site_fract_z
  _atom_site_attached_hydrogens
  _atom_site_B_iso_or_equiv
  _atom_site_occupancy
   Mg  Mg1  1  0.375000  0.750000  0.125000  0  .  1
   Mg  Mg2  1  0.125000  0.250000  0.375000  0  .  1
   Mg  Mg3  1  0.375000  0.125000  0.250000  0  .  1
   Mg  Mg4  1  0.125000  0.375000  0.750000  0  .  1
   Mg  Mg5  1  0.875000  0.750000  0.625000  0  .  1
   Mg  Mg6  1  0.750000  0.125000  0.375000  0  .  1
   Mg  Mg7  1  0.750000  0.625000  0.875000  0  .  1
   Mg  Mg8  1  0.625000  0.250000  0.875000  0  .  1
   Mg  Mg9  1  0.250000  0.875000  0.625000  0  .  1
   Mg  Mg10  1  0.875000  0.625000  0.250000  0  .  1
   Mg  Mg11  1  0.625000  0.875000  0.750000  0  .  1
   Mg  Mg12  1  0.250000  0.375000  0.125000  0  .  1
   Cr  Cr13  1  0.000000  0.000000  0.000000  0  .  1
   Cr  Cr14  1  0.000000  0.500000  0.000000  0  .  1
   Cr  Cr15  1  0.000000  0.000000  0.500000  0  .  1
   Cr  Cr16  1  0.000000  0.500000  0.500000  0  .  1
   Cr  Cr17  1  0.500000  0.000000  0.500000  0  .  1
   Cr  Cr18  1  0.500000  0.500000  0.000000  0  .  1
   Cr  Cr19  1  0.500000  0.500000  0.500000  0  .  1
   Cr  Cr20  1  0.500000  0.000000  0.000000  0  .  1
   Si  Si21  1  0.250000  0.125000  0.875000  0  .  1
   Si  Si22  1  0.750000  0.875000  0.125000  0  .  1
   Si  Si23  1  0.375000  0.250000  0.625000  0  .  1
   Si  Si24  1  0.625000  0.375000  0.250000  0  .  1
   Si  Si25  1  0.125000  0.750000  0.875000  0  .  1
   Si  Si26  1  0.875000  0.125000  0.750000  0  .  1
   Si  Si27  1  0.750000  0.375000  0.625000  0  .  1
   Si  Si28  1  0.375000  0.625000  0.750000  0  .  1
   Si  Si29  1  0.125000  0.875000  0.250000  0  .  1
   Si  Si30  1  0.875000  0.250000  0.125000  0  .  1
   Si  Si31  1  0.625000  0.750000  0.375000  0  .  1
   Si  Si32  1  0.250000  0.625000  0.375000  0  .  1
   O  O33  1  0.289225  0.480266  0.375599  0  .  1
   O  O34  1  0.019734  0.308959  0.895333  0  .  1
   O  O35  1  0.124400  0.604667  0.913625  0  .  1
   O  O36  1  0.210775  0.586375  0.191041  0  .  1
   O  O37  1  0.210775  0.124400  0.019734  0  .  1
   O  O38  1  0.586375  0.191041  0.210775  0  .  1
   O  O39  1  0.604667  0.191041  0.480266  0  .  1
   O  O40  1  0.191041  0.210775  0.586375  0  .  1
   O  O41  1  0.895333  0.375599  0.586375  0  .  1
   O  O42  1  0.308959  0.913625  0.289225  0  .  1
   O  O43  1  0.913625  0.289225  0.308959  0  .  1
   O  O44  1  0.019734  0.210775  0.124400  0  .  1
   O  O45  1  0.191041  0.480266  0.604667  0  .  1
   O  O46  1  0.586375  0.895333  0.375599  0  .  1
   O  O47  1  0.124400  0.019734  0.210775  0  .  1
   O  O48  1  0.480266  0.604667  0.191041  0  .  1
   O  O49  1  0.375599  0.586375  0.895333  0  .  1
   O  O50  1  0.895333  0.019734  0.308959  0  .  1
   O  O51  1  0.604667  0.913625  0.124400  0  .  1
   O  O52  1  0.104667  0.624401  0.413625  0  .  1
   O  O53  1  0.913625  0.124400  0.604667  0  .  1
   O  O54  1  0.375599  0.289225  0.480266  0  .  1
   O  O55  1  0.308959  0.895333  0.019734  0  .  1
   O  O56  1  0.289225  0.308959  0.913625  0  .  1
   O  O57  1  0.710775  0.519734  0.624401  0  .  1
   O  O58  1  0.980266  0.691041  0.104667  0  .  1
   O  O59  1  0.875599  0.395333  0.086375  0  .  1
   O  O60  1  0.789225  0.413625  0.808959  0  .  1
   O  O61  1  0.789225  0.875599  0.980266  0  .  1
   O  O62  1  0.413625  0.808959  0.789225  0  .  1
   O  O63  1  0.395333  0.808959  0.519734  0  .  1
   O  O64  1  0.808959  0.789225  0.413625  0  .  1
   O  O65  1  0.710775  0.691041  0.086375  0  .  1
   O  O66  1  0.691041  0.104667  0.980266  0  .  1
   O  O67  1  0.624401  0.710775  0.519734  0  .  1
   O  O68  1  0.519734  0.624401  0.710775  0  .  1
   O  O69  1  0.086375  0.875599  0.395333  0  .  1
   O  O70  1  0.395333  0.086375  0.875599  0  .  1
   O  O71  1  0.104667  0.980266  0.691041  0  .  1
   O  O72  1  0.624401  0.413625  0.104667  0  .  1
   O  O73  1  0.519734  0.395333  0.808959  0  .  1
   O  O74  1  0.875599  0.980266  0.789225  0  .  1
   O  O75  1  0.413625  0.104667  0.624401  0  .  1
   O  O76  1  0.808959  0.519734  0.395333  0  .  1
   O  O77  1  0.980266  0.789225  0.875599  0  .  1
   O  O78  1  0.086375  0.710775  0.691041  0  .  1
   O  O79  1  0.691041  0.086375  0.710775  0  .  1
   O  O80  1  0.480266  0.375599  0.289225  0  .  1
 
