#\#CIF1.1
##########################################################################
#               Crystallographic Information Format file 
#               Produced by PyCifRW module
# 
#  This is a CIF file.  CIF has been adopted by the International
#  Union of Crystallography as the standard for data archiving and 
#  transmission.
#
#  For information on this file format, follow the CIF links at
#  http://www.iucr.org
##########################################################################

data_ZnNiP2O7
_symmetry_space_group_name_H-M          'P 1'
_cell_length_a                          6.38961455085
_cell_length_b                          6.35614752699
_cell_length_c                          6.64974903789
_cell_angle_alpha                       66.2740915928
_cell_angle_beta                        81.0262720091
_cell_angle_gamma                       80.2693576745
_chemical_name_systematic               'Generated by pymatgen'
_symmetry_Int_Tables_number             1
_chemical_formula_structural            ZnNiP2O7
_chemical_formula_sum                   'Zn2 Ni2 P4 O14'
_cell_volume                            242.524412481
_cell_formula_units_Z                   2
loop_
  _symmetry_equiv_pos_site_id
  _symmetry_equiv_pos_as_xyz
   1  'x, y, z'
 
loop_
  _atom_site_type_symbol
  _atom_site_label
  _atom_site_symmetry_multiplicity
  _atom_site_fract_x
  _atom_site_fract_y
  _atom_site_fract_z
  _atom_site_attached_hydrogens
  _atom_site_B_iso_or_equiv
  _atom_site_occupancy
   Zn  Zn1  1  0.866625  0.287160  0.163517  0  .  1
   Zn  Zn2  1  0.133375  0.712840  0.836483  0  .  1
   Ni  Ni3  1  0.660850  0.098469  0.783781  0  .  1
   Ni  Ni4  1  0.339150  0.901531  0.216219  0  .  1
   P  P5  1  0.154930  0.220431  0.759316  0  .  1
   P  P6  1  0.845070  0.779569  0.240684  0  .  1
   P  P7  1  0.611773  0.639868  0.689877  0  .  1
   P  P8  1  0.388227  0.360132  0.310123  0  .  1
   O  O9  1  0.759789  0.609662  0.477030  0  .  1
   O  O10  1  0.240211  0.390338  0.522970  0  .  1
   O  O11  1  0.997153  0.069392  0.744007  0  .  1
   O  O12  1  0.002847  0.930608  0.255993  0  .  1
   O  O13  1  0.614591  0.260437  0.389140  0  .  1
   O  O14  1  0.385409  0.739563  0.610860  0  .  1
   O  O15  1  0.377781  0.610337  0.144057  0  .  1
   O  O16  1  0.622219  0.389663  0.855942  0  .  1
   O  O17  1  0.949441  0.611046  0.130842  0  .  1
   O  O18  1  0.050559  0.388954  0.869158  0  .  1
   O  O19  1  0.654221  0.939576  0.128808  0  .  1
   O  O20  1  0.345779  0.060424  0.871192  0  .  1
   O  O21  1  0.279517  0.201617  0.252602  0  .  1
   O  O22  1  0.720483  0.798383  0.747398  0  .  1
 
