#\#CIF1.1
##########################################################################
#               Crystallographic Information Format file 
#               Produced by PyCifRW module
# 
#  This is a CIF file.  CIF has been adopted by the International
#  Union of Crystallography as the standard for data archiving and 
#  transmission.
#
#  For information on this file format, follow the CIF links at
#  http://www.iucr.org
##########################################################################

data_MgVP2O7
_symmetry_space_group_name_H-M          'P 1'
_cell_length_a                          5.56213613755
_cell_length_b                          6.5716197121
_cell_length_c                          7.39210741724
_cell_angle_alpha                       81.4706029825
_cell_angle_beta                        85.8417317018
_cell_angle_gamma                       71.7909144901
_chemical_name_systematic               'Generated by pymatgen'
_symmetry_Int_Tables_number             1
_chemical_formula_structural            MgVP2O7
_chemical_formula_sum                   'Mg2 V2 P4 O14'
_cell_volume                            253.730027884
_cell_formula_units_Z                   2
loop_
  _symmetry_equiv_pos_site_id
  _symmetry_equiv_pos_as_xyz
   1  'x, y, z'
 
loop_
  _atom_site_type_symbol
  _atom_site_label
  _atom_site_symmetry_multiplicity
  _atom_site_fract_x
  _atom_site_fract_y
  _atom_site_fract_z
  _atom_site_attached_hydrogens
  _atom_site_B_iso_or_equiv
  _atom_site_occupancy
   Mg  Mg1  1  0.332426  0.656106  0.649203  0  .  1
   Mg  Mg2  1  0.667576  0.343893  0.350798  0  .  1
   V  V3  1  0.261977  0.158959  0.198041  0  .  1
   V  V4  1  0.738020  0.841044  0.801960  0  .  1
   P  P5  1  0.193002  0.680532  0.091412  0  .  1
   P  P6  1  0.806997  0.319468  0.908588  0  .  1
   P  P7  1  0.226008  0.200889  0.615788  0  .  1
   P  P8  1  0.773993  0.799111  0.384213  0  .  1
   O  O9  1  0.114098  0.682258  0.895506  0  .  1
   O  O10  1  0.885904  0.317740  0.104493  0  .  1
   O  O11  1  0.300457  0.860554  0.110960  0  .  1
   O  O12  1  0.699544  0.139445  0.889039  0  .  1
   O  O13  1  0.356931  0.455780  0.174067  0  .  1
   O  O14  1  0.643067  0.544219  0.825935  0  .  1
   O  O15  1  0.605184  0.651987  0.430769  0  .  1
   O  O16  1  0.394819  0.348010  0.569232  0  .  1
   O  O17  1  0.042935  0.225097  0.461187  0  .  1
   O  O18  1  0.957067  0.774903  0.538811  0  .  1
   O  O19  1  0.075779  0.282951  0.797118  0  .  1
   O  O20  1  0.625157  0.037489  0.327977  0  .  1
   O  O21  1  0.374842  0.962511  0.672023  0  .  1
   O  O22  1  0.924219  0.717052  0.202881  0  .  1
 
