#\#CIF1.1
##########################################################################
#               Crystallographic Information Format file 
#               Produced by PyCifRW module
# 
#  This is a CIF file.  CIF has been adopted by the International
#  Union of Crystallography as the standard for data archiving and 
#  transmission.
#
#  For information on this file format, follow the CIF links at
#  http://www.iucr.org
##########################################################################

data_Ca2VBiO6
_symmetry_space_group_name_H-M          'P 1'
_cell_length_a                          5.60544278
_cell_length_b                          7.53378950567
_cell_length_c                          7.5337892115
_cell_angle_alpha                       106.488014127
_cell_angle_beta                        90.0
_cell_angle_gamma                       90.0
_chemical_name_systematic               'Generated by pymatgen'
_symmetry_Int_Tables_number             1
_chemical_formula_structural            Ca2VBiO6
_chemical_formula_sum                   'Ca4 V2 Bi2 O12'
_cell_volume                            305.07086661
_cell_formula_units_Z                   2
loop_
  _symmetry_equiv_pos_site_id
  _symmetry_equiv_pos_as_xyz
   1  'x, y, z'
 
loop_
  _atom_site_type_symbol
  _atom_site_label
  _atom_site_symmetry_multiplicity
  _atom_site_fract_x
  _atom_site_fract_y
  _atom_site_fract_z
  _atom_site_attached_hydrogens
  _atom_site_B_iso_or_equiv
  _atom_site_occupancy
   Ca  Ca1  1  0.758386  0.695476  0.909184  0  .  1
   Ca  Ca2  1  0.258386  0.304524  0.090816  0  .  1
   Ca  Ca3  1  0.258386  0.909184  0.695476  0  .  1
   Ca  Ca4  1  0.758386  0.090816  0.304524  0  .  1
   V  V5  1  0.305064  0.815744  0.184256  0  .  1
   V  V6  1  0.805064  0.184256  0.815744  0  .  1
   Bi  Bi7  1  0.742663  0.589550  0.410450  0  .  1
   Bi  Bi8  1  0.242663  0.410450  0.589550  0  .  1
   O  O9  1  0.004003  0.351499  0.341648  0  .  1
   O  O10  1  0.992064  0.816123  0.183877  0  .  1
   O  O11  1  0.425741  0.595547  0.092556  0  .  1
   O  O12  1  0.925741  0.404453  0.907444  0  .  1
   O  O13  1  0.504003  0.341648  0.351499  0  .  1
   O  O14  1  0.435946  0.946802  0.053198  0  .  1
   O  O15  1  0.004003  0.658352  0.648501  0  .  1
   O  O16  1  0.504003  0.648501  0.658352  0  .  1
   O  O17  1  0.935946  0.053198  0.946802  0  .  1
   O  O18  1  0.492064  0.183877  0.816123  0  .  1
   O  O19  1  0.925741  0.092556  0.595547  0  .  1
   O  O20  1  0.425741  0.907444  0.404453  0  .  1
 
