#\#CIF1.1
##########################################################################
#               Crystallographic Information Format file 
#               Produced by PyCifRW module
# 
#  This is a CIF file.  CIF has been adopted by the International
#  Union of Crystallography as the standard for data archiving and 
#  transmission.
#
#  For information on this file format, follow the CIF links at
#  http://www.iucr.org
##########################################################################

data_CaMn2(P2O7)2
_symmetry_space_group_name_H-M          'P 1'
_cell_length_a                          6.30622677278
_cell_length_b                          7.25664617198
_cell_length_c                          6.33292638116
_cell_angle_alpha                       67.5184726191
_cell_angle_beta                        82.8032519384
_cell_angle_gamma                       85.0349282103
_chemical_name_systematic               'Generated by pymatgen'
_symmetry_Int_Tables_number             1
_chemical_formula_structural            CaMn2(P2O7)2
_chemical_formula_sum                   'Ca1 Mn2 P4 O14'
_cell_volume                            265.437370392
_cell_formula_units_Z                   1
loop_
  _symmetry_equiv_pos_site_id
  _symmetry_equiv_pos_as_xyz
   1  'x, y, z'
 
loop_
  _atom_site_type_symbol
  _atom_site_label
  _atom_site_symmetry_multiplicity
  _atom_site_fract_x
  _atom_site_fract_y
  _atom_site_fract_z
  _atom_site_attached_hydrogens
  _atom_site_B_iso_or_equiv
  _atom_site_occupancy
   Ca  Ca1  1  0.352755  0.621218  0.302672  0  .  1
   Mn  Mn2  1  0.851249  0.743270  0.898411  0  .  1
   Mn  Mn3  1  0.151191  0.255188  0.097879  0  .  1
   P  P4  1  0.878742  0.848975  0.353591  0  .  1
   P  P5  1  0.113441  0.156772  0.645867  0  .  1
   P  P6  1  0.642523  0.250485  0.219732  0  .  1
   P  P7  1  0.358146  0.762509  0.769919  0  .  1
   O  O8  1  0.910937  0.044683  0.744873  0  .  1
   O  O9  1  0.096814  0.936833  0.245554  0  .  1
   O  O10  1  0.184621  0.272365  0.779762  0  .  1
   O  O11  1  0.795280  0.739905  0.215946  0  .  1
   O  O12  1  0.119437  0.302737  0.390642  0  .  1
   O  O13  1  0.889357  0.705289  0.605698  0  .  1
   O  O14  1  0.464169  0.241453  0.078241  0  .  1
   O  O15  1  0.535025  0.752749  0.924447  0  .  1
   O  O16  1  0.707947  0.019566  0.365910  0  .  1
   O  O17  1  0.302390  0.992689  0.635419  0  .  1
   O  O18  1  0.846988  0.338906  0.059494  0  .  1
   O  O19  1  0.422398  0.665230  0.604114  0  .  1
   O  O20  1  0.574408  0.352380  0.383550  0  .  1
   O  O21  1  0.163062  0.668891  0.948580  0  .  1
 
