#\#CIF1.1
##########################################################################
#               Crystallographic Information Format file 
#               Produced by PyCifRW module
# 
#  This is a CIF file.  CIF has been adopted by the International
#  Union of Crystallography as the standard for data archiving and 
#  transmission.
#
#  For information on this file format, follow the CIF links at
#  http://www.iucr.org
##########################################################################

data_ZnSi2NiO6
_symmetry_space_group_name_H-M          'P 1'
_cell_length_a                          5.27852711
_cell_length_b                          9.0455027
_cell_length_c                          18.41574973
_cell_angle_alpha                       90.0
_cell_angle_beta                        90.0
_cell_angle_gamma                       90.0
_chemical_name_systematic               'Generated by pymatgen'
_symmetry_Int_Tables_number             1
_chemical_formula_structural            ZnSi2NiO6
_chemical_formula_sum                   'Zn8 Si16 Ni8 O48'
_cell_volume                            879.295535825
_cell_formula_units_Z                   8
loop_
  _symmetry_equiv_pos_site_id
  _symmetry_equiv_pos_as_xyz
   1  'x, y, z'
 
loop_
  _atom_site_type_symbol
  _atom_site_label
  _atom_site_symmetry_multiplicity
  _atom_site_fract_x
  _atom_site_fract_y
  _atom_site_fract_z
  _atom_site_attached_hydrogens
  _atom_site_B_iso_or_equiv
  _atom_site_occupancy
   Zn  Zn1  1  0.618736  0.150291  0.623834  0  .  1
   Zn  Zn2  1  0.381264  0.849709  0.376166  0  .  1
   Zn  Zn3  1  0.618736  0.650291  0.876166  0  .  1
   Zn  Zn4  1  0.118736  0.849709  0.876166  0  .  1
   Zn  Zn5  1  0.881264  0.150291  0.123834  0  .  1
   Zn  Zn6  1  0.381264  0.349709  0.123834  0  .  1
   Zn  Zn7  1  0.118736  0.349709  0.623834  0  .  1
   Zn  Zn8  1  0.881264  0.650291  0.376166  0  .  1
   Si  Si9  1  0.564101  0.659100  0.227399  0  .  1
   Si  Si10  1  0.714686  0.836887  0.526251  0  .  1
   Si  Si11  1  0.785314  0.836887  0.026251  0  .  1
   Si  Si12  1  0.935899  0.159100  0.772601  0  .  1
   Si  Si13  1  0.064101  0.340900  0.272601  0  .  1
   Si  Si14  1  0.435899  0.840900  0.727399  0  .  1
   Si  Si15  1  0.214686  0.663113  0.526251  0  .  1
   Si  Si16  1  0.714686  0.336887  0.973749  0  .  1
   Si  Si17  1  0.785314  0.336887  0.473749  0  .  1
   Si  Si18  1  0.935899  0.659100  0.727399  0  .  1
   Si  Si19  1  0.435899  0.340900  0.772601  0  .  1
   Si  Si20  1  0.564101  0.159100  0.272601  0  .  1
   Si  Si21  1  0.285314  0.163113  0.473749  0  .  1
   Si  Si22  1  0.064101  0.840900  0.227399  0  .  1
   Si  Si23  1  0.285314  0.663113  0.026251  0  .  1
   Si  Si24  1  0.214686  0.163113  0.973749  0  .  1
   Ni  Ni25  1  0.374703  0.995642  0.123928  0  .  1
   Ni  Ni26  1  0.625297  0.004358  0.876072  0  .  1
   Ni  Ni27  1  0.874703  0.004358  0.376072  0  .  1
   Ni  Ni28  1  0.125297  0.995642  0.623928  0  .  1
   Ni  Ni29  1  0.374703  0.495642  0.376072  0  .  1
   Ni  Ni30  1  0.625297  0.504358  0.623928  0  .  1
   Ni  Ni31  1  0.874703  0.504358  0.123928  0  .  1
   Ni  Ni32  1  0.125297  0.495642  0.876072  0  .  1
   O  O33  1  0.928736  0.499057  0.688690  0  .  1
   O  O34  1  0.307063  0.014182  0.933549  0  .  1
   O  O35  1  0.071264  0.500943  0.311310  0  .  1
   O  O36  1  0.715592  0.341828  0.063119  0  .  1
   O  O37  1  0.215592  0.158172  0.063119  0  .  1
   O  O38  1  0.917854  0.203777  0.948774  0  .  1
   O  O39  1  0.950232  0.657287  0.816277  0  .  1
   O  O40  1  0.049768  0.842713  0.316277  0  .  1
   O  O41  1  0.715592  0.841828  0.436881  0  .  1
   O  O42  1  0.950232  0.157287  0.683723  0  .  1
   O  O43  1  0.428736  0.500943  0.811310  0  .  1
   O  O44  1  0.784408  0.341828  0.563119  0  .  1
   O  O45  1  0.692937  0.985818  0.066451  0  .  1
   O  O46  1  0.450232  0.842713  0.816277  0  .  1
   O  O47  1  0.571264  0.999057  0.311310  0  .  1
   O  O48  1  0.307063  0.514182  0.566451  0  .  1
   O  O49  1  0.428736  0.000943  0.688690  0  .  1
   O  O50  1  0.164898  0.767979  0.697697  0  .  1
   O  O51  1  0.335102  0.767979  0.197697  0  .  1
   O  O52  1  0.582146  0.703777  0.051226  0  .  1
   O  O53  1  0.784408  0.841828  0.936881  0  .  1
   O  O54  1  0.549768  0.657287  0.316277  0  .  1
   O  O55  1  0.807063  0.485818  0.933549  0  .  1
   O  O56  1  0.164898  0.267979  0.802303  0  .  1
   O  O57  1  0.284408  0.158172  0.563119  0  .  1
   O  O58  1  0.549768  0.157287  0.183723  0  .  1
   O  O59  1  0.692937  0.485818  0.433549  0  .  1
   O  O60  1  0.215592  0.658172  0.436881  0  .  1
   O  O61  1  0.192937  0.514182  0.066451  0  .  1
   O  O62  1  0.664898  0.732021  0.697697  0  .  1
   O  O63  1  0.071264  0.000943  0.188690  0  .  1
   O  O64  1  0.835102  0.732021  0.197697  0  .  1
   O  O65  1  0.835102  0.232021  0.302303  0  .  1
   O  O66  1  0.807063  0.985818  0.566451  0  .  1
   O  O67  1  0.284408  0.658172  0.936881  0  .  1
   O  O68  1  0.192937  0.014182  0.433549  0  .  1
   O  O69  1  0.335102  0.267979  0.302303  0  .  1
   O  O70  1  0.082146  0.796223  0.051226  0  .  1
   O  O71  1  0.417854  0.796223  0.551226  0  .  1
   O  O72  1  0.664898  0.232021  0.802303  0  .  1
   O  O73  1  0.417854  0.296223  0.948774  0  .  1
   O  O74  1  0.582146  0.203777  0.448774  0  .  1
   O  O75  1  0.082146  0.296223  0.448774  0  .  1
   O  O76  1  0.450232  0.342713  0.683723  0  .  1
   O  O77  1  0.571264  0.499057  0.188690  0  .  1
   O  O78  1  0.917854  0.703777  0.551226  0  .  1
   O  O79  1  0.049768  0.342713  0.183723  0  .  1
   O  O80  1  0.928736  0.999057  0.811310  0  .  1
 
