#\#CIF1.1
##########################################################################
#               Crystallographic Information Format file 
#               Produced by PyCifRW module
# 
#  This is a CIF file.  CIF has been adopted by the International
#  Union of Crystallography as the standard for data archiving and 
#  transmission.
#
#  For information on this file format, follow the CIF links at
#  http://www.iucr.org
##########################################################################

data_MgMnP2O7
_symmetry_space_group_name_H-M          'P 1'
_cell_length_a                          5.65817201373
_cell_length_b                          6.54182740228
_cell_length_c                          7.42094688973
_cell_angle_alpha                       82.6941571058
_cell_angle_beta                        86.933063103
_cell_angle_gamma                       71.229274519
_chemical_name_systematic               'Generated by pymatgen'
_symmetry_Int_Tables_number             1
_chemical_formula_structural            MgMnP2O7
_chemical_formula_sum                   'Mg2 Mn2 P4 O14'
_cell_volume                            257.940729061
_cell_formula_units_Z                   2
loop_
  _symmetry_equiv_pos_site_id
  _symmetry_equiv_pos_as_xyz
   1  'x, y, z'
 
loop_
  _atom_site_type_symbol
  _atom_site_label
  _atom_site_symmetry_multiplicity
  _atom_site_fract_x
  _atom_site_fract_y
  _atom_site_fract_z
  _atom_site_attached_hydrogens
  _atom_site_B_iso_or_equiv
  _atom_site_occupancy
   Mg  Mg1  1  0.335857  0.661925  0.653143  0  .  1
   Mg  Mg2  1  0.664143  0.338076  0.346859  0  .  1
   Mn  Mn3  1  0.252555  0.149640  0.205490  0  .  1
   Mn  Mn4  1  0.747448  0.850362  0.794515  0  .  1
   P  P5  1  0.190568  0.671688  0.100138  0  .  1
   P  P6  1  0.809431  0.328313  0.899861  0  .  1
   P  P7  1  0.218899  0.210314  0.612652  0  .  1
   P  P8  1  0.781103  0.789684  0.387347  0  .  1
   O  O9  1  0.116021  0.695848  0.900184  0  .  1
   O  O10  1  0.883981  0.304147  0.099816  0  .  1
   O  O11  1  0.294398  0.843655  0.145269  0  .  1
   O  O12  1  0.705599  0.156348  0.854733  0  .  1
   O  O13  1  0.358640  0.439463  0.165357  0  .  1
   O  O14  1  0.641362  0.560538  0.834642  0  .  1
   O  O15  1  0.620678  0.641004  0.439977  0  .  1
   O  O16  1  0.379321  0.358995  0.560021  0  .  1
   O  O17  1  0.035783  0.223722  0.461794  0  .  1
   O  O18  1  0.964218  0.776277  0.538204  0  .  1
   O  O19  1  0.072285  0.302849  0.791111  0  .  1
   O  O20  1  0.628276  0.028122  0.328916  0  .  1
   O  O21  1  0.371725  0.971876  0.671085  0  .  1
   O  O22  1  0.927714  0.697149  0.208886  0  .  1
 
