#\#CIF1.1
##########################################################################
#               Crystallographic Information Format file 
#               Produced by PyCifRW module
# 
#  This is a CIF file.  CIF has been adopted by the International
#  Union of Crystallography as the standard for data archiving and 
#  transmission.
#
#  For information on this file format, follow the CIF links at
#  http://www.iucr.org
##########################################################################

data_MnZnP2O7
_symmetry_space_group_name_H-M          'P 1'
_cell_length_a                          5.80187466216
_cell_length_b                          6.50460452164
_cell_length_c                          7.39256831804
_cell_angle_alpha                       83.2642716849
_cell_angle_beta                        86.2107104024
_cell_angle_gamma                       70.6314763715
_chemical_name_systematic               'Generated by pymatgen'
_symmetry_Int_Tables_number             1
_chemical_formula_structural            MnZnP2O7
_chemical_formula_sum                   'Mn2 Zn2 P4 O14'
_cell_volume                            261.271344391
_cell_formula_units_Z                   2
loop_
  _symmetry_equiv_pos_site_id
  _symmetry_equiv_pos_as_xyz
   1  'x, y, z'
 
loop_
  _atom_site_type_symbol
  _atom_site_label
  _atom_site_symmetry_multiplicity
  _atom_site_fract_x
  _atom_site_fract_y
  _atom_site_fract_z
  _atom_site_attached_hydrogens
  _atom_site_B_iso_or_equiv
  _atom_site_occupancy
   Mn  Mn1  1  0.249621  0.146870  0.204269  0  .  1
   Mn  Mn2  1  0.750381  0.853129  0.795731  0  .  1
   Zn  Zn3  1  0.343742  0.662106  0.659556  0  .  1
   Zn  Zn4  1  0.656259  0.337895  0.340444  0  .  1
   P  P5  1  0.191074  0.668091  0.099195  0  .  1
   P  P6  1  0.808924  0.331909  0.900805  0  .  1
   P  P7  1  0.220157  0.213154  0.614574  0  .  1
   P  P8  1  0.779844  0.786845  0.385425  0  .  1
   O  O9  1  0.115231  0.702212  0.898731  0  .  1
   O  O10  1  0.884770  0.297788  0.101269  0  .  1
   O  O11  1  0.292811  0.835483  0.152860  0  .  1
   O  O12  1  0.707188  0.164516  0.847140  0  .  1
   O  O13  1  0.356267  0.431153  0.154246  0  .  1
   O  O14  1  0.643735  0.568846  0.845755  0  .  1
   O  O15  1  0.625598  0.633449  0.437290  0  .  1
   O  O16  1  0.374401  0.366551  0.562711  0  .  1
   O  O17  1  0.050918  0.218635  0.461997  0  .  1
   O  O18  1  0.949081  0.781365  0.538003  0  .  1
   O  O19  1  0.066828  0.310573  0.791550  0  .  1
   O  O20  1  0.621846  0.023880  0.322582  0  .  1
   O  O21  1  0.378156  0.976119  0.677419  0  .  1
   O  O22  1  0.933171  0.689428  0.208449  0  .  1
 
