#\#CIF1.1
##########################################################################
#               Crystallographic Information Format file 
#               Produced by PyCifRW module
# 
#  This is a CIF file.  CIF has been adopted by the International
#  Union of Crystallography as the standard for data archiving and 
#  transmission.
#
#  For information on this file format, follow the CIF links at
#  http://www.iucr.org
##########################################################################

data_Cr(SiO3)2
_symmetry_space_group_name_H-M          'P 1'
_cell_length_a                          6.48220255477
_cell_length_b                          8.69992477653
_cell_length_c                          5.33982683411
_cell_angle_alpha                       90.0009697546
_cell_angle_beta                        75.062353042
_cell_angle_gamma                       47.8398661119
_chemical_name_systematic               'Generated by pymatgen'
_symmetry_Int_Tables_number             1
_chemical_formula_structural            Cr(SiO3)2
_chemical_formula_sum                   'Cr2 Si4 O12'
_cell_volume                            209.292681389
_cell_formula_units_Z                   2
loop_
  _symmetry_equiv_pos_site_id
  _symmetry_equiv_pos_as_xyz
   1  'x, y, z'
 
loop_
  _atom_site_type_symbol
  _atom_site_label
  _atom_site_symmetry_multiplicity
  _atom_site_fract_x
  _atom_site_fract_y
  _atom_site_fract_z
  _atom_site_attached_hydrogens
  _atom_site_B_iso_or_equiv
  _atom_site_occupancy
   Cr  Cr1  1  0.499136  0.901287  0.246632  0  .  1
   Cr  Cr2  1  0.499119  0.099229  0.746103  0  .  1
   Si  Si3  1  0.098701  0.786970  0.251036  0  .  1
   Si  Si4  1  0.899482  0.213220  0.741229  0  .  1
   Si  Si5  1  0.899582  0.386470  0.241445  0  .  1
   Si  Si6  1  0.098221  0.613872  0.751200  0  .  1
   O  O7  1  0.783693  0.362519  0.531585  0  .  1
   O  O8  1  0.217565  0.902913  0.216672  0  .  1
   O  O9  1  0.271539  0.186298  0.126468  0  .  1
   O  O10  1  0.213446  0.637300  0.460452  0  .  1
   O  O11  1  0.781599  0.096591  0.775903  0  .  1
   O  O12  1  0.726396  0.814484  0.866562  0  .  1
   O  O13  1  0.780580  0.621543  0.276362  0  .  1
   O  O14  1  0.726625  0.958768  0.366529  0  .  1
   O  O15  1  0.784772  0.352068  0.031667  0  .  1
   O  O16  1  0.213783  0.647593  0.960810  0  .  1
   O  O17  1  0.271408  0.042324  0.625624  0  .  1
   O  O18  1  0.216595  0.379064  0.717187  0  .  1
 
