#\#CIF1.1
##########################################################################
#               Crystallographic Information Format file 
#               Produced by PyCifRW module
# 
#  This is a CIF file.  CIF has been adopted by the International
#  Union of Crystallography as the standard for data archiving and 
#  transmission.
#
#  For information on this file format, follow the CIF links at
#  http://www.iucr.org
##########################################################################

data_Al5CuSe8
_symmetry_space_group_name_H-M          'P 1'
_cell_length_a                          7.513426
_cell_length_b                          7.5134261858
_cell_length_c                          7.51342540182
_cell_angle_alpha                       59.9999996356
_cell_angle_beta                        59.9999973664
_cell_angle_gamma                       60.000000818
_chemical_name_systematic               'Generated by pymatgen'
_symmetry_Int_Tables_number             1
_chemical_formula_structural            Al5CuSe8
_chemical_formula_sum                   'Al5 Cu1 Se8'
_cell_volume                            299.915569141
_cell_formula_units_Z                   1
loop_
  _symmetry_equiv_pos_site_id
  _symmetry_equiv_pos_as_xyz
   1  'x, y, z'
 
loop_
  _atom_site_type_symbol
  _atom_site_label
  _atom_site_symmetry_multiplicity
  _atom_site_fract_x
  _atom_site_fract_y
  _atom_site_fract_z
  _atom_site_attached_hydrogens
  _atom_site_B_iso_or_equiv
  _atom_site_occupancy
   Al  Al1  1  0.250000  0.250000  0.250000  0  .  1
   Al  Al2  1  0.103683  0.632106  0.632106  0  .  1
   Al  Al3  1  0.632106  0.632106  0.103683  0  .  1
   Al  Al4  1  0.632106  0.103683  0.632106  0  .  1
   Al  Al5  1  0.632106  0.632106  0.632106  0  .  1
   Cu  Cu6  1  0.000000  0.000000  0.000000  0  .  1
   Se  Se7  1  0.383939  0.383939  0.383939  0  .  1
   Se  Se8  1  0.383939  0.848182  0.383939  0  .  1
   Se  Se9  1  0.383939  0.383939  0.848182  0  .  1
   Se  Se10  1  0.848182  0.383939  0.383939  0  .  1
   Se  Se11  1  0.393657  0.868781  0.868781  0  .  1
   Se  Se12  1  0.868781  0.868781  0.393657  0  .  1
   Se  Se13  1  0.868781  0.393657  0.868781  0  .  1
   Se  Se14  1  0.868781  0.868781  0.868781  0  .  1
 
