#\#CIF1.1
##########################################################################
#               Crystallographic Information Format file 
#               Produced by PyCifRW module
# 
#  This is a CIF file.  CIF has been adopted by the International
#  Union of Crystallography as the standard for data archiving and 
#  transmission.
#
#  For information on this file format, follow the CIF links at
#  http://www.iucr.org
##########################################################################

data_Zn3Si3(BiO6)2
_symmetry_space_group_name_H-M          'P 1'
_cell_length_a                          10.8243223019
_cell_length_b                          10.8243226117
_cell_length_c                          10.82432224
_cell_angle_alpha                       109.471221904
_cell_angle_beta                        109.471222518
_cell_angle_gamma                       109.471218224
_chemical_name_systematic               'Generated by pymatgen'
_symmetry_Int_Tables_number             1
_chemical_formula_structural            Zn3Si3(BiO6)2
_chemical_formula_sum                   'Zn12 Si12 Bi8 O48'
_cell_volume                            976.293191986
_cell_formula_units_Z                   4
loop_
  _symmetry_equiv_pos_site_id
  _symmetry_equiv_pos_as_xyz
   1  'x, y, z'
 
loop_
  _atom_site_type_symbol
  _atom_site_label
  _atom_site_symmetry_multiplicity
  _atom_site_fract_x
  _atom_site_fract_y
  _atom_site_fract_z
  _atom_site_attached_hydrogens
  _atom_site_B_iso_or_equiv
  _atom_site_occupancy
   Zn  Zn1  1  0.375000  0.750000  0.125000  0  .  1
   Zn  Zn2  1  0.125000  0.250000  0.375000  0  .  1
   Zn  Zn3  1  0.375000  0.125000  0.250000  0  .  1
   Zn  Zn4  1  0.125000  0.375000  0.750000  0  .  1
   Zn  Zn5  1  0.875000  0.750000  0.625000  0  .  1
   Zn  Zn6  1  0.750000  0.125000  0.375000  0  .  1
   Zn  Zn7  1  0.750000  0.625000  0.875000  0  .  1
   Zn  Zn8  1  0.625000  0.250000  0.875000  0  .  1
   Zn  Zn9  1  0.250000  0.875000  0.625000  0  .  1
   Zn  Zn10  1  0.875000  0.625000  0.250000  0  .  1
   Zn  Zn11  1  0.625000  0.875000  0.750000  0  .  1
   Zn  Zn12  1  0.250000  0.375000  0.125000  0  .  1
   Si  Si13  1  0.250000  0.125000  0.875000  0  .  1
   Si  Si14  1  0.750000  0.875000  0.125000  0  .  1
   Si  Si15  1  0.375000  0.250000  0.625000  0  .  1
   Si  Si16  1  0.625000  0.375000  0.250000  0  .  1
   Si  Si17  1  0.125000  0.750000  0.875000  0  .  1
   Si  Si18  1  0.875000  0.125000  0.750000  0  .  1
   Si  Si19  1  0.750000  0.375000  0.625000  0  .  1
   Si  Si20  1  0.375000  0.625000  0.750000  0  .  1
   Si  Si21  1  0.125000  0.875000  0.250000  0  .  1
   Si  Si22  1  0.875000  0.250000  0.125000  0  .  1
   Si  Si23  1  0.625000  0.750000  0.375000  0  .  1
   Si  Si24  1  0.250000  0.625000  0.375000  0  .  1
   Bi  Bi25  1  0.000000  0.000000  0.000000  0  .  1
   Bi  Bi26  1  0.000000  0.500000  0.000000  0  .  1
   Bi  Bi27  1  0.000000  0.000000  0.500000  0  .  1
   Bi  Bi28  1  0.000000  0.500000  0.500000  0  .  1
   Bi  Bi29  1  0.500000  0.000000  0.500000  0  .  1
   Bi  Bi30  1  0.500000  0.500000  0.000000  0  .  1
   Bi  Bi31  1  0.500000  0.500000  0.500000  0  .  1
   Bi  Bi32  1  0.500000  0.000000  0.000000  0  .  1
   O  O33  1  0.267743  0.475947  0.367801  0  .  1
   O  O34  1  0.024053  0.291796  0.891854  0  .  1
   O  O35  1  0.132199  0.608146  0.899942  0  .  1
   O  O36  1  0.232257  0.600058  0.208204  0  .  1
   O  O37  1  0.232257  0.132199  0.024053  0  .  1
   O  O38  1  0.600058  0.208204  0.232257  0  .  1
   O  O39  1  0.608146  0.208204  0.475947  0  .  1
   O  O40  1  0.208204  0.232257  0.600058  0  .  1
   O  O41  1  0.891854  0.367801  0.600058  0  .  1
   O  O42  1  0.291796  0.899942  0.267743  0  .  1
   O  O43  1  0.899942  0.267743  0.291796  0  .  1
   O  O44  1  0.024053  0.232257  0.132199  0  .  1
   O  O45  1  0.208204  0.475947  0.608146  0  .  1
   O  O46  1  0.600058  0.891854  0.367801  0  .  1
   O  O47  1  0.132199  0.024053  0.232257  0  .  1
   O  O48  1  0.475947  0.608146  0.208204  0  .  1
   O  O49  1  0.367801  0.600058  0.891854  0  .  1
   O  O50  1  0.891854  0.024053  0.291796  0  .  1
   O  O51  1  0.608146  0.899942  0.132199  0  .  1
   O  O52  1  0.108146  0.632199  0.399942  0  .  1
   O  O53  1  0.899942  0.132199  0.608146  0  .  1
   O  O54  1  0.367801  0.267743  0.475947  0  .  1
   O  O55  1  0.291796  0.891854  0.024053  0  .  1
   O  O56  1  0.267743  0.291796  0.899942  0  .  1
   O  O57  1  0.732257  0.524053  0.632199  0  .  1
   O  O58  1  0.975947  0.708204  0.108146  0  .  1
   O  O59  1  0.867801  0.391854  0.100058  0  .  1
   O  O60  1  0.767743  0.399942  0.791796  0  .  1
   O  O61  1  0.767743  0.867801  0.975947  0  .  1
   O  O62  1  0.399942  0.791796  0.767743  0  .  1
   O  O63  1  0.391854  0.791796  0.524053  0  .  1
   O  O64  1  0.791796  0.767743  0.399942  0  .  1
   O  O65  1  0.732257  0.708204  0.100058  0  .  1
   O  O66  1  0.708204  0.108146  0.975947  0  .  1
   O  O67  1  0.632199  0.732257  0.524053  0  .  1
   O  O68  1  0.524053  0.632199  0.732257  0  .  1
   O  O69  1  0.100058  0.867801  0.391854  0  .  1
   O  O70  1  0.391854  0.100058  0.867801  0  .  1
   O  O71  1  0.108146  0.975947  0.708204  0  .  1
   O  O72  1  0.632199  0.399942  0.108146  0  .  1
   O  O73  1  0.524053  0.391854  0.791796  0  .  1
   O  O74  1  0.867801  0.975947  0.767743  0  .  1
   O  O75  1  0.399942  0.108146  0.632199  0  .  1
   O  O76  1  0.791796  0.524053  0.391854  0  .  1
   O  O77  1  0.975947  0.767743  0.867801  0  .  1
   O  O78  1  0.100058  0.732257  0.708204  0  .  1
   O  O79  1  0.708204  0.100058  0.732257  0  .  1
   O  O80  1  0.475947  0.367801  0.267743  0  .  1
 
