#\#CIF1.1
##########################################################################
#               Crystallographic Information Format file 
#               Produced by PyCifRW module
# 
#  This is a CIF file.  CIF has been adopted by the International
#  Union of Crystallography as the standard for data archiving and 
#  transmission.
#
#  For information on this file format, follow the CIF links at
#  http://www.iucr.org
##########################################################################

data_CaCo(GeO3)2
_symmetry_space_group_name_H-M          'P 1'
_cell_length_a                          5.48201020821
_cell_length_b                          6.88918207748
_cell_length_c                          6.889182159
_cell_angle_alpha                       82.5754001135
_cell_angle_beta                        78.0225844173
_cell_angle_gamma                       78.0225789469
_chemical_name_systematic               'Generated by pymatgen'
_symmetry_Int_Tables_number             1
_chemical_formula_structural            CaCo(GeO3)2
_chemical_formula_sum                   'Ca2 Co2 Ge4 O12'
_cell_volume                            247.964409842
_cell_formula_units_Z                   2
loop_
  _symmetry_equiv_pos_site_id
  _symmetry_equiv_pos_as_xyz
   1  'x, y, z'
 
loop_
  _atom_site_type_symbol
  _atom_site_label
  _atom_site_symmetry_multiplicity
  _atom_site_fract_x
  _atom_site_fract_y
  _atom_site_fract_z
  _atom_site_attached_hydrogens
  _atom_site_B_iso_or_equiv
  _atom_site_occupancy
   Ca  Ca1  1  0.750000  0.301436  0.698564  0  .  1
   Ca  Ca2  1  0.250000  0.698564  0.301436  0  .  1
   Co  Co3  1  0.750000  0.907715  0.092285  0  .  1
   Co  Co4  1  0.250000  0.092285  0.907715  0  .  1
   Ge  Ge5  1  0.783676  0.382735  0.185682  0  .  1
   Ge  Ge6  1  0.716324  0.814318  0.617265  0  .  1
   Ge  Ge7  1  0.216324  0.617265  0.814318  0  .  1
   Ge  Ge8  1  0.283676  0.185682  0.382735  0  .  1
   O  O9  1  0.524517  0.328057  0.388778  0  .  1
   O  O10  1  0.975483  0.611222  0.671943  0  .  1
   O  O11  1  0.475483  0.671943  0.611222  0  .  1
   O  O12  1  0.024517  0.388778  0.328057  0  .  1
   O  O13  1  0.160355  0.100628  0.623502  0  .  1
   O  O14  1  0.339645  0.376498  0.899372  0  .  1
   O  O15  1  0.839645  0.899372  0.376498  0  .  1
   O  O16  1  0.660355  0.623502  0.100628  0  .  1
   O  O17  1  0.871075  0.200284  0.016371  0  .  1
   O  O18  1  0.628925  0.983629  0.799716  0  .  1
   O  O19  1  0.128925  0.799716  0.983629  0  .  1
   O  O20  1  0.371075  0.016371  0.200284  0  .  1
 
