#\#CIF1.1
##########################################################################
#               Crystallographic Information Format file 
#               Produced by PyCifRW module
# 
#  This is a CIF file.  CIF has been adopted by the International
#  Union of Crystallography as the standard for data archiving and 
#  transmission.
#
#  For information on this file format, follow the CIF links at
#  http://www.iucr.org
##########################################################################

data_VO2
_symmetry_space_group_name_H-M          'P 1'
_cell_length_a                          5.91561070497
_cell_length_b                          5.9084519216
_cell_length_c                          5.93819154532
_cell_angle_alpha                       90.5338632609
_cell_angle_beta                        119.850644961
_cell_angle_gamma                       119.506629037
_chemical_name_systematic               'Generated by pymatgen'
_symmetry_Int_Tables_number             1
_chemical_formula_structural            VO2
_chemical_formula_sum                   'V4 O8'
_cell_volume                            147.496341599
_cell_formula_units_Z                   4
loop_
  _symmetry_equiv_pos_site_id
  _symmetry_equiv_pos_as_xyz
   1  'x, y, z'
 
loop_
  _atom_site_type_symbol
  _atom_site_label
  _atom_site_symmetry_multiplicity
  _atom_site_fract_x
  _atom_site_fract_y
  _atom_site_fract_z
  _atom_site_attached_hydrogens
  _atom_site_B_iso_or_equiv
  _atom_site_occupancy
   V  V1  1  0.500002  1.000000  0.500000  0  .  1
   V  V2  1  0.500001  0.500001  0.500002  0  .  1
   V  V3  1  0.999999  0.500002  0.000000  0  .  1
   V  V4  1  0.999999  0.499998  0.499998  0  .  1
   O  O5  1  0.031973  0.732300  0.265808  0  .  1
   O  O6  1  0.468526  0.733138  0.701098  0  .  1
   O  O7  1  0.466965  0.735239  0.265128  0  .  1
   O  O8  1  0.967273  0.700706  0.732104  0  .  1
   O  O9  1  0.533035  0.264761  0.734872  0  .  1
   O  O10  1  0.531472  0.266860  0.298902  0  .  1
   O  O11  1  0.032727  0.299295  0.267896  0  .  1
   O  O12  1  0.968026  0.267700  0.734193  0  .  1
 
