#\#CIF1.1
##########################################################################
#               Crystallographic Information Format file 
#               Produced by PyCifRW module
# 
#  This is a CIF file.  CIF has been adopted by the International
#  Union of Crystallography as the standard for data archiving and 
#  transmission.
#
#  For information on this file format, follow the CIF links at
#  http://www.iucr.org
##########################################################################

data_YMnO3
_symmetry_space_group_name_H-M          'P 1'
_cell_length_a                          5.34889369
_cell_length_b                          5.85537622
_cell_length_c                          7.51846642
_cell_angle_alpha                       90.0
_cell_angle_beta                        90.0
_cell_angle_gamma                       90.0
_chemical_name_systematic               'Generated by pymatgen'
_symmetry_Int_Tables_number             1
_chemical_formula_structural            YMnO3
_chemical_formula_sum                   'Y4 Mn4 O12'
_cell_volume                            235.476751171
_cell_formula_units_Z                   4
loop_
  _symmetry_equiv_pos_site_id
  _symmetry_equiv_pos_as_xyz
   1  'x, y, z'
 
loop_
  _atom_site_type_symbol
  _atom_site_label
  _atom_site_symmetry_multiplicity
  _atom_site_fract_x
  _atom_site_fract_y
  _atom_site_fract_z
  _atom_site_attached_hydrogens
  _atom_site_B_iso_or_equiv
  _atom_site_occupancy
   Y  Y1  1  0.019538  0.920161  0.750000  0  .  1
   Y  Y2  1  0.519538  0.579839  0.250000  0  .  1
   Y  Y3  1  0.480462  0.420161  0.750000  0  .  1
   Y  Y4  1  0.980462  0.079839  0.250000  0  .  1
   Mn  Mn5  1  0.000000  0.500000  0.500000  0  .  1
   Mn  Mn6  1  0.500000  0.000000  0.500000  0  .  1
   Mn  Mn7  1  0.500000  0.000000  0.000000  0  .  1
   Mn  Mn8  1  0.000000  0.500000  0.000000  0  .  1
   O  O9  1  0.703550  0.322678  0.442832  0  .  1
   O  O10  1  0.203550  0.177322  0.557168  0  .  1
   O  O11  1  0.796450  0.822678  0.057168  0  .  1
   O  O12  1  0.296450  0.677322  0.942832  0  .  1
   O  O13  1  0.296450  0.677322  0.557168  0  .  1
   O  O14  1  0.796450  0.822678  0.442832  0  .  1
   O  O15  1  0.203550  0.177322  0.942832  0  .  1
   O  O16  1  0.703550  0.322678  0.057168  0  .  1
   O  O17  1  0.118427  0.458291  0.250000  0  .  1
   O  O18  1  0.618427  0.041709  0.750000  0  .  1
   O  O19  1  0.381573  0.958291  0.250000  0  .  1
   O  O20  1  0.881573  0.541709  0.750000  0  .  1
 
