#\#CIF1.1
##########################################################################
#               Crystallographic Information Format file 
#               Produced by PyCifRW module
# 
#  This is a CIF file.  CIF has been adopted by the International
#  Union of Crystallography as the standard for data archiving and 
#  transmission.
#
#  For information on this file format, follow the CIF links at
#  http://www.iucr.org
##########################################################################

data_MgNiP2O7
_symmetry_space_group_name_H-M          'P 1'
_cell_length_a                          5.67247427063
_cell_length_b                          6.39614971733
_cell_length_c                          7.23889520263
_cell_angle_alpha                       84.5444771642
_cell_angle_beta                        88.54027814
_cell_angle_gamma                       69.9868156834
_chemical_name_systematic               'Generated by pymatgen'
_symmetry_Int_Tables_number             1
_chemical_formula_structural            MgNiP2O7
_chemical_formula_sum                   'Mg2 Ni2 P4 O14'
_cell_volume                            245.656805358
_cell_formula_units_Z                   2
loop_
  _symmetry_equiv_pos_site_id
  _symmetry_equiv_pos_as_xyz
   1  'x, y, z'
 
loop_
  _atom_site_type_symbol
  _atom_site_label
  _atom_site_symmetry_multiplicity
  _atom_site_fract_x
  _atom_site_fract_y
  _atom_site_fract_z
  _atom_site_attached_hydrogens
  _atom_site_B_iso_or_equiv
  _atom_site_occupancy
   Mg  Mg1  1  0.333319  0.673930  0.657971  0  .  1
   Mg  Mg2  1  0.666682  0.326070  0.342029  0  .  1
   Ni  Ni3  1  0.250522  0.145905  0.206754  0  .  1
   Ni  Ni4  1  0.749478  0.854092  0.793251  0  .  1
   P  P5  1  0.179708  0.668712  0.107916  0  .  1
   P  P6  1  0.820292  0.331287  0.892082  0  .  1
   P  P7  1  0.229733  0.216042  0.608428  0  .  1
   P  P8  1  0.770270  0.783957  0.391573  0  .  1
   O  O9  1  0.102347  0.717536  0.902213  0  .  1
   O  O10  1  0.897655  0.282464  0.097787  0  .  1
   O  O11  1  0.276360  0.836247  0.180828  0  .  1
   O  O12  1  0.723640  0.163754  0.819172  0  .  1
   O  O13  1  0.355582  0.425672  0.153457  0  .  1
   O  O14  1  0.644419  0.574327  0.846544  0  .  1
   O  O15  1  0.622556  0.628889  0.446597  0  .  1
   O  O16  1  0.377443  0.371111  0.553403  0  .  1
   O  O17  1  0.053136  0.212735  0.451705  0  .  1
   O  O18  1  0.946863  0.787264  0.548293  0  .  1
   O  O19  1  0.076069  0.322855  0.784254  0  .  1
   O  O20  1  0.609925  0.024614  0.320955  0  .  1
   O  O21  1  0.390075  0.975387  0.679044  0  .  1
   O  O22  1  0.923930  0.677145  0.215744  0  .  1
 
