#\#CIF1.1
##########################################################################
#               Crystallographic Information Format file 
#               Produced by PyCifRW module
# 
#  This is a CIF file.  CIF has been adopted by the International
#  Union of Crystallography as the standard for data archiving and 
#  transmission.
#
#  For information on this file format, follow the CIF links at
#  http://www.iucr.org
##########################################################################

data_CaV5O7
_symmetry_space_group_name_H-M          'P 1'
_cell_length_a                          3.12842163
_cell_length_b                          5.23918395764
_cell_length_c                          18.18397531
_cell_angle_alpha                       90.0
_cell_angle_beta                        90.0
_cell_angle_gamma                       107.371134563
_chemical_name_systematic               'Generated by pymatgen'
_symmetry_Int_Tables_number             1
_chemical_formula_structural            CaV5O7
_chemical_formula_sum                   'Ca2 V10 O14'
_cell_volume                            284.448752618
_cell_formula_units_Z                   2
loop_
  _symmetry_equiv_pos_site_id
  _symmetry_equiv_pos_as_xyz
   1  'x, y, z'
 
loop_
  _atom_site_type_symbol
  _atom_site_label
  _atom_site_symmetry_multiplicity
  _atom_site_fract_x
  _atom_site_fract_y
  _atom_site_fract_z
  _atom_site_attached_hydrogens
  _atom_site_B_iso_or_equiv
  _atom_site_occupancy
   Ca  Ca1  1  0.788945  0.577888  0.750000  0  .  1
   Ca  Ca2  1  0.211056  0.422111  0.250000  0  .  1
   V  V3  1  0.277018  0.554034  0.573864  0  .  1
   V  V4  1  0.459399  0.918797  0.150963  0  .  1
   V  V5  1  0.000000  0.000000  0.500000  0  .  1
   V  V6  1  0.000000  0.000000  0.000000  0  .  1
   V  V7  1  0.540601  0.081202  0.849038  0  .  1
   V  V8  1  0.722982  0.445965  0.426136  0  .  1
   V  V9  1  0.722982  0.445965  0.073864  0  .  1
   V  V10  1  0.277018  0.554034  0.926136  0  .  1
   V  V11  1  0.540601  0.081202  0.650962  0  .  1
   V  V12  1  0.459399  0.918797  0.349038  0  .  1
   O  O13  1  0.632965  0.265929  0.959986  0  .  1
   O  O14  1  0.367036  0.734072  0.040014  0  .  1
   O  O15  1  0.367036  0.734072  0.459986  0  .  1
   O  O16  1  0.632965  0.265929  0.540014  0  .  1
   O  O17  1  0.168510  0.337022  0.827894  0  .  1
   O  O18  1  0.831490  0.662978  0.172106  0  .  1
   O  O19  1  0.831490  0.662978  0.327895  0  .  1
   O  O20  1  0.168510  0.337022  0.672106  0  .  1
   O  O21  1  0.915076  0.830151  0.889087  0  .  1
   O  O22  1  0.084924  0.169849  0.110913  0  .  1
   O  O23  1  0.084924  0.169849  0.389087  0  .  1
   O  O24  1  0.915076  0.830151  0.610913  0  .  1
   O  O25  1  0.459853  0.919707  0.750000  0  .  1
   O  O26  1  0.540148  0.080295  0.250000  0  .  1
 
