#\#CIF1.1
##########################################################################
#               Crystallographic Information Format file 
#               Produced by PyCifRW module
# 
#  This is a CIF file.  CIF has been adopted by the International
#  Union of Crystallography as the standard for data archiving and 
#  transmission.
#
#  For information on this file format, follow the CIF links at
#  http://www.iucr.org
##########################################################################

data_Ba2AlW2F11
_symmetry_space_group_name_H-M          'P 1'
_cell_length_a                          7.73267602
_cell_length_b                          7.7326756954
_cell_length_c                          15.20401149
_cell_angle_alpha                       90.0
_cell_angle_beta                        90.0
_cell_angle_gamma                       120.000001429
_chemical_name_systematic               'Generated by pymatgen'
_symmetry_Int_Tables_number             1
_chemical_formula_structural            Ba2AlW2F11
_chemical_formula_sum                   'Ba6 Al3 W6 F33'
_cell_volume                            787.314818707
_cell_formula_units_Z                   3
loop_
  _symmetry_equiv_pos_site_id
  _symmetry_equiv_pos_as_xyz
   1  'x, y, z'
 
loop_
  _atom_site_type_symbol
  _atom_site_label
  _atom_site_symmetry_multiplicity
  _atom_site_fract_x
  _atom_site_fract_y
  _atom_site_fract_z
  _atom_site_attached_hydrogens
  _atom_site_B_iso_or_equiv
  _atom_site_occupancy
   Ba  Ba1  1  0.514508  0.182594  0.652066  0  .  1
   Ba  Ba2  1  0.170413  0.469012  0.790995  0  .  1
   Ba  Ba3  1  0.668086  0.485492  0.985399  0  .  1
   Ba  Ba4  1  0.530988  0.701400  0.457661  0  .  1
   Ba  Ba5  1  0.298600  0.829587  0.124328  0  .  1
   Ba  Ba6  1  0.817406  0.331914  0.318732  0  .  1
   Al  Al7  1  0.183826  0.016119  0.871808  0  .  1
   Al  Al8  1  0.832294  0.816174  0.205141  0  .  1
   Al  Al9  1  0.983881  0.167706  0.538474  0  .  1
   W  W10  1  0.634872  0.993122  0.892858  0  .  1
   W  W11  1  0.761406  0.754268  0.728398  0  .  1
   W  W12  1  0.245732  0.007139  0.395064  0  .  1
   W  W13  1  0.358251  0.365128  0.226191  0  .  1
   W  W14  1  0.992861  0.238594  0.061731  0  .  1
   W  W15  1  0.006878  0.641749  0.559524  0  .  1
   F  F16  1  0.678649  0.094146  0.029643  0  .  1
   F  F17  1  0.478461  0.676328  0.918034  0  .  1
   F  F18  1  0.415497  0.321351  0.362976  0  .  1
   F  F19  1  0.147463  0.406638  0.485174  0  .  1
   F  F20  1  0.511255  0.205946  0.195822  0  .  1
   F  F21  1  0.838598  0.601831  0.155372  0  .  1
   F  F22  1  0.593362  0.740825  0.151841  0  .  1
   F  F23  1  0.398169  0.236766  0.822039  0  .  1
   F  F24  1  0.694689  0.488745  0.529155  0  .  1
   F  F25  1  0.307943  0.379595  0.086904  0  .  1
   F  F26  1  0.259175  0.852537  0.818508  0  .  1
   F  F27  1  0.905854  0.584503  0.696310  0  .  1
   F  F28  1  0.327980  0.050827  0.972378  0  .  1
   F  F29  1  0.040464  0.521071  0.019439  0  .  1
   F  F30  1  0.722847  0.672020  0.305711  0  .  1
   F  F31  1  0.323672  0.802132  0.584700  0  .  1
   F  F32  1  0.104792  0.191900  0.910800  0  .  1
   F  F33  1  0.071652  0.692057  0.420237  0  .  1
   F  F34  1  0.996200  0.041277  0.433058  0  .  1
   F  F35  1  0.949173  0.277153  0.639044  0  .  1
   F  F36  1  0.045078  0.003800  0.766392  0  .  1
   F  F37  1  0.478929  0.519393  0.686106  0  .  1
   F  F38  1  0.480607  0.959536  0.352772  0  .  1
   F  F39  1  0.087108  0.895208  0.244133  0  .  1
   F  F40  1  0.620405  0.928348  0.753571  0  .  1
   F  F41  1  0.794054  0.305311  0.862489  0  .  1
   F  F42  1  0.197868  0.521539  0.251367  0  .  1
   F  F43  1  0.963322  0.804201  0.915221  0  .  1
   F  F44  1  0.840879  0.036678  0.248554  0  .  1
   F  F45  1  0.958723  0.954922  0.099725  0  .  1
   F  F46  1  0.763234  0.161402  0.488705  0  .  1
   F  F47  1  0.808100  0.912892  0.577466  0  .  1
   F  F48  1  0.195799  0.159121  0.581887  0  .  1
 
