#\#CIF1.1
##########################################################################
#               Crystallographic Information Format file 
#               Produced by PyCifRW module
# 
#  This is a CIF file.  CIF has been adopted by the International
#  Union of Crystallography as the standard for data archiving and 
#  transmission.
#
#  For information on this file format, follow the CIF links at
#  http://www.iucr.org
##########################################################################

data_Ca(MoO2)2
_symmetry_space_group_name_H-M          'P 1'
_cell_length_a                          6.56163038376
_cell_length_b                          6.45614553277
_cell_length_c                          6.47748007325
_cell_angle_alpha                       91.9496698607
_cell_angle_beta                        119.244353842
_cell_angle_gamma                       117.989523439
_chemical_name_systematic               'Generated by pymatgen'
_symmetry_Int_Tables_number             1
_chemical_formula_structural            Ca(MoO2)2
_chemical_formula_sum                   'Ca2 Mo4 O8'
_cell_volume                            198.696735819
_cell_formula_units_Z                   2
loop_
  _symmetry_equiv_pos_site_id
  _symmetry_equiv_pos_as_xyz
   1  'x, y, z'
 
loop_
  _atom_site_type_symbol
  _atom_site_label
  _atom_site_symmetry_multiplicity
  _atom_site_fract_x
  _atom_site_fract_y
  _atom_site_fract_z
  _atom_site_attached_hydrogens
  _atom_site_B_iso_or_equiv
  _atom_site_occupancy
   Ca  Ca1  1  0.248615  0.124175  0.873924  0  .  1
   Ca  Ca2  1  0.747874  0.875388  0.126243  0  .  1
   Mo  Mo3  1  0.500145  0.000502  0.499884  0  .  1
   Mo  Mo4  1  0.500345  0.499088  0.500375  0  .  1
   Mo  Mo5  1  0.998940  0.499617  0.000155  0  .  1
   Mo  Mo6  1  0.000874  0.500523  0.499486  0  .  1
   O  O7  1  0.041655  0.748912  0.278515  0  .  1
   O  O8  1  0.460322  0.737895  0.705274  0  .  1
   O  O9  1  0.458624  0.720707  0.251673  0  .  1
   O  O10  1  0.960459  0.707596  0.737038  0  .  1
   O  O11  1  0.539255  0.277022  0.749525  0  .  1
   O  O12  1  0.543153  0.263553  0.294302  0  .  1
   O  O13  1  0.040556  0.291341  0.262332  0  .  1
   O  O14  1  0.959184  0.253687  0.721272  0  .  1
 
