#\#CIF1.1
##########################################################################
#               Crystallographic Information Format file 
#               Produced by PyCifRW module
# 
#  This is a CIF file.  CIF has been adopted by the International
#  Union of Crystallography as the standard for data archiving and 
#  transmission.
#
#  For information on this file format, follow the CIF links at
#  http://www.iucr.org
##########################################################################

data_Co(Si2O5)2
_symmetry_space_group_name_H-M          'P 1'
_cell_length_a                          7.266025
_cell_length_b                          7.266025
_cell_length_c                          15.32871571
_cell_angle_alpha                       90.0
_cell_angle_beta                        90.0
_cell_angle_gamma                       90.0
_chemical_name_systematic               'Generated by pymatgen'
_symmetry_Int_Tables_number             1
_chemical_formula_structural            Co(Si2O5)2
_chemical_formula_sum                   'Co4 Si16 O40'
_cell_volume                            809.281374635
_cell_formula_units_Z                   4
loop_
  _symmetry_equiv_pos_site_id
  _symmetry_equiv_pos_as_xyz
   1  'x, y, z'
 
loop_
  _atom_site_type_symbol
  _atom_site_label
  _atom_site_symmetry_multiplicity
  _atom_site_fract_x
  _atom_site_fract_y
  _atom_site_fract_z
  _atom_site_attached_hydrogens
  _atom_site_B_iso_or_equiv
  _atom_site_occupancy
   Co  Co1  1  0.250000  0.250000  0.583472  0  .  1
   Co  Co2  1  0.750000  0.750000  0.916528  0  .  1
   Co  Co3  1  0.750000  0.750000  0.416528  0  .  1
   Co  Co4  1  0.250000  0.250000  0.083472  0  .  1
   Si  Si5  1  0.926051  0.502463  0.647399  0  .  1
   Si  Si6  1  0.573949  0.997537  0.647399  0  .  1
   Si  Si7  1  0.002463  0.426051  0.852601  0  .  1
   Si  Si8  1  0.502463  0.573949  0.647399  0  .  1
   Si  Si9  1  0.997537  0.926051  0.647399  0  .  1
   Si  Si10  1  0.073949  0.002463  0.852601  0  .  1
   Si  Si11  1  0.426051  0.497537  0.852601  0  .  1
   Si  Si12  1  0.497537  0.073949  0.852601  0  .  1
   Si  Si13  1  0.073949  0.497537  0.352601  0  .  1
   Si  Si14  1  0.426051  0.002463  0.352601  0  .  1
   Si  Si15  1  0.997537  0.573949  0.147399  0  .  1
   Si  Si16  1  0.497537  0.426051  0.352601  0  .  1
   Si  Si17  1  0.002463  0.073949  0.352601  0  .  1
   Si  Si18  1  0.926051  0.997537  0.147399  0  .  1
   Si  Si19  1  0.573949  0.502463  0.147399  0  .  1
   Si  Si20  1  0.502463  0.926051  0.147399  0  .  1
   O  O21  1  0.024714  0.345274  0.587359  0  .  1
   O  O22  1  0.475286  0.154726  0.587359  0  .  1
   O  O23  1  0.845274  0.524714  0.912641  0  .  1
   O  O24  1  0.345274  0.475286  0.587359  0  .  1
   O  O25  1  0.154726  0.024714  0.587359  0  .  1
   O  O26  1  0.975286  0.845274  0.912641  0  .  1
   O  O27  1  0.524714  0.654726  0.912641  0  .  1
   O  O28  1  0.654726  0.975286  0.912641  0  .  1
   O  O29  1  0.975286  0.654726  0.412641  0  .  1
   O  O30  1  0.524714  0.845274  0.412641  0  .  1
   O  O31  1  0.154726  0.475286  0.087359  0  .  1
   O  O32  1  0.654726  0.524714  0.412641  0  .  1
   O  O33  1  0.845274  0.975286  0.412641  0  .  1
   O  O34  1  0.024714  0.154726  0.087359  0  .  1
   O  O35  1  0.475286  0.345274  0.087359  0  .  1
   O  O36  1  0.995401  0.292799  0.373969  0  .  1
   O  O37  1  0.345274  0.024714  0.087359  0  .  1
   O  O38  1  0.495401  0.792799  0.626031  0  .  1
   O  O39  1  0.207201  0.504599  0.873969  0  .  1
   O  O40  1  0.707201  0.495401  0.626031  0  .  1
   O  O41  1  0.792799  0.004599  0.626031  0  .  1
   O  O42  1  0.995401  0.207201  0.873969  0  .  1
   O  O43  1  0.504599  0.292799  0.873969  0  .  1
   O  O44  1  0.292799  0.995401  0.873969  0  .  1
   O  O45  1  0.457673  0.957672  0.250000  0  .  1
   O  O46  1  0.542327  0.457673  0.250000  0  .  1
   O  O47  1  0.957672  0.042327  0.250000  0  .  1
   O  O48  1  0.042327  0.542327  0.250000  0  .  1
   O  O49  1  0.542327  0.042327  0.750000  0  .  1
   O  O50  1  0.457673  0.542327  0.750000  0  .  1
   O  O51  1  0.042327  0.957672  0.750000  0  .  1
   O  O52  1  0.957672  0.457673  0.750000  0  .  1
   O  O53  1  0.707201  0.004599  0.126031  0  .  1
   O  O54  1  0.495401  0.707201  0.126031  0  .  1
   O  O55  1  0.004599  0.792799  0.126031  0  .  1
   O  O56  1  0.207201  0.995401  0.373969  0  .  1
   O  O57  1  0.292799  0.504599  0.373969  0  .  1
   O  O58  1  0.792799  0.495401  0.126031  0  .  1
   O  O59  1  0.504599  0.207201  0.373969  0  .  1
   O  O60  1  0.004599  0.707201  0.626031  0  .  1
 
