#\#CIF1.1
##########################################################################
#               Crystallographic Information Format file 
#               Produced by PyCifRW module
# 
#  This is a CIF file.  CIF has been adopted by the International
#  Union of Crystallography as the standard for data archiving and 
#  transmission.
#
#  For information on this file format, follow the CIF links at
#  http://www.iucr.org
##########################################################################

data_CaVP2O7
_symmetry_space_group_name_H-M          'P 1'
_cell_length_a                          6.31380959367
_cell_length_b                          6.70349665942
_cell_length_c                          7.19866370468
_cell_angle_alpha                       83.1178539323
_cell_angle_beta                        87.9536208746
_cell_angle_gamma                       68.2567952667
_chemical_name_systematic               'Generated by pymatgen'
_symmetry_Int_Tables_number             1
_chemical_formula_structural            CaVP2O7
_chemical_formula_sum                   'Ca2 V2 P4 O14'
_cell_volume                            280.952046584
_cell_formula_units_Z                   2
loop_
  _symmetry_equiv_pos_site_id
  _symmetry_equiv_pos_as_xyz
   1  'x, y, z'
 
loop_
  _atom_site_type_symbol
  _atom_site_label
  _atom_site_symmetry_multiplicity
  _atom_site_fract_x
  _atom_site_fract_y
  _atom_site_fract_z
  _atom_site_attached_hydrogens
  _atom_site_B_iso_or_equiv
  _atom_site_occupancy
   Ca  Ca1  1  0.300724  0.710761  0.636767  0  .  1
   Ca  Ca2  1  0.699277  0.289240  0.363233  0  .  1
   V  V3  1  0.258723  0.130787  0.186526  0  .  1
   V  V4  1  0.741279  0.869212  0.813474  0  .  1
   P  P5  1  0.170241  0.657237  0.119760  0  .  1
   P  P6  1  0.829757  0.342763  0.880240  0  .  1
   P  P7  1  0.236664  0.219206  0.618385  0  .  1
   P  P8  1  0.763337  0.780793  0.381614  0  .  1
   O  O9  1  0.085665  0.731127  0.915876  0  .  1
   O  O10  1  0.914336  0.268873  0.084124  0  .  1
   O  O11  1  0.250931  0.812985  0.205088  0  .  1
   O  O12  1  0.749068  0.187014  0.794912  0  .  1
   O  O13  1  0.338061  0.422385  0.145051  0  .  1
   O  O14  1  0.661941  0.577614  0.854950  0  .  1
   O  O15  1  0.638943  0.631188  0.451382  0  .  1
   O  O16  1  0.361056  0.368812  0.548619  0  .  1
   O  O17  1  0.108776  0.167277  0.463149  0  .  1
   O  O18  1  0.891223  0.832723  0.536851  0  .  1
   O  O19  1  0.056692  0.349830  0.764549  0  .  1
   O  O20  1  0.609069  0.996656  0.274041  0  .  1
   O  O21  1  0.390933  0.003343  0.725960  0  .  1
   O  O22  1  0.943307  0.650171  0.235450  0  .  1
 
