#\#CIF1.1
##########################################################################
#               Crystallographic Information Format file 
#               Produced by PyCifRW module
# 
#  This is a CIF file.  CIF has been adopted by the International
#  Union of Crystallography as the standard for data archiving and 
#  transmission.
#
#  For information on this file format, follow the CIF links at
#  http://www.iucr.org
##########################################################################

data_CrSiO4
_symmetry_space_group_name_H-M          'P 1'
_cell_length_a                          9.69055177327
_cell_length_b                          9.69055135831
_cell_length_c                          9.69055149
_cell_angle_alpha                       109.471222895
_cell_angle_beta                        109.47122199
_cell_angle_gamma                       109.471220117
_chemical_name_systematic               'Generated by pymatgen'
_symmetry_Int_Tables_number             1
_chemical_formula_structural            CrSiO4
_chemical_formula_sum                   'Cr12 Si12 O48'
_cell_volume                            700.524904992
_cell_formula_units_Z                   12
loop_
  _symmetry_equiv_pos_site_id
  _symmetry_equiv_pos_as_xyz
   1  'x, y, z'
 
loop_
  _atom_site_type_symbol
  _atom_site_label
  _atom_site_symmetry_multiplicity
  _atom_site_fract_x
  _atom_site_fract_y
  _atom_site_fract_z
  _atom_site_attached_hydrogens
  _atom_site_B_iso_or_equiv
  _atom_site_occupancy
   Cr  Cr1  1  0.250000  0.875001  0.625000  0  .  1
   Cr  Cr2  1  0.875000  0.625000  0.250000  0  .  1
   Cr  Cr3  1  0.625001  0.875001  0.750001  0  .  1
   Cr  Cr4  1  0.875001  0.750001  0.625001  0  .  1
   Cr  Cr5  1  0.625000  0.250000  0.875000  0  .  1
   Cr  Cr6  1  0.750000  0.625000  0.875000  0  .  1
   Cr  Cr7  1  0.750000  0.125000  0.375000  0  .  1
   Cr  Cr8  1  0.125000  0.375000  0.750000  0  .  1
   Cr  Cr9  1  0.375000  0.125000  0.250000  0  .  1
   Cr  Cr10  1  0.125000  0.250000  0.375000  0  .  1
   Cr  Cr11  1  0.375000  0.750001  0.125000  0  .  1
   Cr  Cr12  1  0.250000  0.375000  0.125000  0  .  1
   Si  Si13  1  0.250000  0.125000  0.875000  0  .  1
   Si  Si14  1  0.875000  0.250000  0.125000  0  .  1
   Si  Si15  1  0.625000  0.750001  0.375000  0  .  1
   Si  Si16  1  0.250000  0.625000  0.375001  0  .  1
   Si  Si17  1  0.375000  0.625000  0.750000  0  .  1
   Si  Si18  1  0.750000  0.375000  0.625000  0  .  1
   Si  Si19  1  0.875000  0.125000  0.750000  0  .  1
   Si  Si20  1  0.125000  0.750001  0.875000  0  .  1
   Si  Si21  1  0.125000  0.875001  0.250000  0  .  1
   Si  Si22  1  0.625000  0.375000  0.250000  0  .  1
   Si  Si23  1  0.375000  0.250000  0.625000  0  .  1
   Si  Si24  1  0.750000  0.875001  0.125000  0  .  1
   O  O25  1  0.275985  0.464570  0.368410  0  .  1
   O  O26  1  0.035430  0.311415  0.903840  0  .  1
   O  O27  1  0.131590  0.596160  0.907575  0  .  1
   O  O28  1  0.224014  0.592425  0.188585  0  .  1
   O  O29  1  0.224014  0.131589  0.035429  0  .  1
   O  O30  1  0.592424  0.188584  0.224014  0  .  1
   O  O31  1  0.596159  0.188584  0.464570  0  .  1
   O  O32  1  0.188585  0.224014  0.592426  0  .  1
   O  O33  1  0.903841  0.368410  0.592425  0  .  1
   O  O34  1  0.311416  0.907575  0.275986  0  .  1
   O  O35  1  0.907575  0.275986  0.311416  0  .  1
   O  O36  1  0.035430  0.224014  0.131589  0  .  1
   O  O37  1  0.188585  0.464570  0.596160  0  .  1
   O  O38  1  0.592425  0.903841  0.368411  0  .  1
   O  O39  1  0.131589  0.035429  0.224014  0  .  1
   O  O40  1  0.464570  0.596160  0.188584  0  .  1
   O  O41  1  0.368410  0.592425  0.903840  0  .  1
   O  O42  1  0.903840  0.035429  0.311415  0  .  1
   O  O43  1  0.596159  0.907575  0.131590  0  .  1
   O  O44  1  0.096159  0.631589  0.407575  0  .  1
   O  O45  1  0.464570  0.368410  0.275985  0  .  1
   O  O46  1  0.368410  0.275986  0.464570  0  .  1
   O  O47  1  0.311416  0.903841  0.035430  0  .  1
   O  O48  1  0.275985  0.311415  0.907574  0  .  1
   O  O49  1  0.724014  0.535429  0.631589  0  .  1
   O  O50  1  0.964570  0.688584  0.096159  0  .  1
   O  O51  1  0.868411  0.403841  0.092425  0  .  1
   O  O52  1  0.775986  0.407575  0.811416  0  .  1
   O  O53  1  0.775985  0.868411  0.964571  0  .  1
   O  O54  1  0.407575  0.811415  0.775985  0  .  1
   O  O55  1  0.403841  0.811415  0.535429  0  .  1
   O  O56  1  0.811416  0.775986  0.407575  0  .  1
   O  O57  1  0.724014  0.688584  0.092425  0  .  1
   O  O58  1  0.688585  0.096160  0.964570  0  .  1
   O  O59  1  0.631589  0.724015  0.535430  0  .  1
   O  O60  1  0.535430  0.631589  0.724014  0  .  1
   O  O61  1  0.092425  0.868411  0.403840  0  .  1
   O  O62  1  0.403840  0.092424  0.868410  0  .  1
   O  O63  1  0.096160  0.964570  0.688584  0  .  1
   O  O64  1  0.631590  0.407575  0.096159  0  .  1
   O  O65  1  0.535430  0.403841  0.811416  0  .  1
   O  O66  1  0.868411  0.964570  0.775986  0  .  1
   O  O67  1  0.407575  0.096160  0.631590  0  .  1
   O  O68  1  0.811415  0.535429  0.403841  0  .  1
   O  O69  1  0.964570  0.775986  0.868411  0  .  1
   O  O70  1  0.092425  0.724015  0.688585  0  .  1
   O  O71  1  0.688584  0.092424  0.724014  0  .  1
   O  O72  1  0.907575  0.131589  0.596159  0  .  1
 
