#\#CIF1.1
##########################################################################
#               Crystallographic Information Format file 
#               Produced by PyCifRW module
# 
#  This is a CIF file.  CIF has been adopted by the International
#  Union of Crystallography as the standard for data archiving and 
#  transmission.
#
#  For information on this file format, follow the CIF links at
#  http://www.iucr.org
##########################################################################

data_AlVF5
_symmetry_space_group_name_H-M          'P 1'
_cell_length_a                          3.60070966329
_cell_length_b                          5.30636617447
_cell_length_c                          5.30636589198
_cell_angle_alpha                       73.2376525505
_cell_angle_beta                        70.166866727
_cell_angle_gamma                       70.1668557726
_chemical_name_systematic               'Generated by pymatgen'
_symmetry_Int_Tables_number             1
_chemical_formula_structural            AlVF5
_chemical_formula_sum                   'Al1 V1 F5'
_cell_volume                            87.9790052159
_cell_formula_units_Z                   1
loop_
  _symmetry_equiv_pos_site_id
  _symmetry_equiv_pos_as_xyz
   1  'x, y, z'
 
loop_
  _atom_site_type_symbol
  _atom_site_label
  _atom_site_symmetry_multiplicity
  _atom_site_fract_x
  _atom_site_fract_y
  _atom_site_fract_z
  _atom_site_attached_hydrogens
  _atom_site_B_iso_or_equiv
  _atom_site_occupancy
   Al  Al1  1  0.500000  0.500000  0.500000  0  .  1
   V  V2  1  0.000000  0.000000  0.000000  0  .  1
   F  F3  1  0.500000  0.795317  0.204683  0  .  1
   F  F4  1  0.500000  0.204683  0.795317  0  .  1
   F  F5  1  0.731840  0.268160  0.268160  0  .  1
   F  F6  1  0.268160  0.731840  0.731840  0  .  1
   F  F7  1  0.000000  0.500000  0.500000  0  .  1
 
