#\#CIF1.1
##########################################################################
#               Crystallographic Information Format file 
#               Produced by PyCifRW module
# 
#  This is a CIF file.  CIF has been adopted by the International
#  Union of Crystallography as the standard for data archiving and 
#  transmission.
#
#  For information on this file format, follow the CIF links at
#  http://www.iucr.org
##########################################################################

data_CaSi4SnO10
_symmetry_space_group_name_H-M          'P 1'
_cell_length_a                          7.54377462
_cell_length_b                          7.54377462
_cell_length_c                          16.02643036
_cell_angle_alpha                       90.0
_cell_angle_beta                        90.0
_cell_angle_gamma                       90.0
_chemical_name_systematic               'Generated by pymatgen'
_symmetry_Int_Tables_number             1
_chemical_formula_structural            CaSi4SnO10
_chemical_formula_sum                   'Ca4 Si16 Sn4 O40'
_cell_volume                            912.040681358
_cell_formula_units_Z                   4
loop_
  _symmetry_equiv_pos_site_id
  _symmetry_equiv_pos_as_xyz
   1  'x, y, z'
 
loop_
  _atom_site_type_symbol
  _atom_site_label
  _atom_site_symmetry_multiplicity
  _atom_site_fract_x
  _atom_site_fract_y
  _atom_site_fract_z
  _atom_site_attached_hydrogens
  _atom_site_B_iso_or_equiv
  _atom_site_occupancy
   Ca  Ca1  1  0.250000  0.750000  0.500000  0  .  1
   Ca  Ca2  1  0.750000  0.250000  0.500000  0  .  1
   Ca  Ca3  1  0.750000  0.250000  0.000000  0  .  1
   Ca  Ca4  1  0.250000  0.750000  0.000000  0  .  1
   Si  Si5  1  0.906283  0.494755  0.653536  0  .  1
   Si  Si6  1  0.593717  0.005245  0.653536  0  .  1
   Si  Si7  1  0.994755  0.406283  0.846464  0  .  1
   Si  Si8  1  0.494755  0.593717  0.653536  0  .  1
   Si  Si9  1  0.005245  0.906283  0.653536  0  .  1
   Si  Si10  1  0.093717  0.994755  0.846464  0  .  1
   Si  Si11  1  0.406283  0.505245  0.846464  0  .  1
   Si  Si12  1  0.505245  0.093717  0.846464  0  .  1
   Si  Si13  1  0.093717  0.505245  0.346464  0  .  1
   Si  Si14  1  0.406283  0.994755  0.346464  0  .  1
   Si  Si15  1  0.005245  0.593717  0.153536  0  .  1
   Si  Si16  1  0.505245  0.406283  0.346464  0  .  1
   Si  Si17  1  0.994755  0.093717  0.346464  0  .  1
   Si  Si18  1  0.906283  0.005245  0.153536  0  .  1
   Si  Si19  1  0.593717  0.494755  0.153536  0  .  1
   Si  Si20  1  0.494755  0.906283  0.153536  0  .  1
   Sn  Sn21  1  0.250000  0.250000  0.539704  0  .  1
   Sn  Sn22  1  0.750000  0.750000  0.960296  0  .  1
   Sn  Sn23  1  0.750000  0.750000  0.460296  0  .  1
   Sn  Sn24  1  0.250000  0.250000  0.039704  0  .  1
   O  O25  1  0.979059  0.353388  0.586033  0  .  1
   O  O26  1  0.520941  0.146612  0.586033  0  .  1
   O  O27  1  0.853388  0.479059  0.913967  0  .  1
   O  O28  1  0.353388  0.520941  0.586033  0  .  1
   O  O29  1  0.146612  0.979059  0.586033  0  .  1
   O  O30  1  0.020941  0.853388  0.913967  0  .  1
   O  O31  1  0.479059  0.646612  0.913967  0  .  1
   O  O32  1  0.646612  0.020941  0.913967  0  .  1
   O  O33  1  0.020941  0.646612  0.413967  0  .  1
   O  O34  1  0.479059  0.853388  0.413967  0  .  1
   O  O35  1  0.146612  0.520941  0.086033  0  .  1
   O  O36  1  0.646612  0.479059  0.413967  0  .  1
   O  O37  1  0.853388  0.020941  0.413967  0  .  1
   O  O38  1  0.979059  0.146612  0.086033  0  .  1
   O  O39  1  0.520941  0.353388  0.086033  0  .  1
   O  O40  1  0.005864  0.308979  0.363063  0  .  1
   O  O41  1  0.353388  0.979059  0.086033  0  .  1
   O  O42  1  0.505864  0.808979  0.636937  0  .  1
   O  O43  1  0.191021  0.494136  0.863063  0  .  1
   O  O44  1  0.691021  0.505864  0.636937  0  .  1
   O  O45  1  0.808979  0.994136  0.636937  0  .  1
   O  O46  1  0.005864  0.191021  0.863063  0  .  1
   O  O47  1  0.494136  0.308979  0.863063  0  .  1
   O  O48  1  0.308979  0.005864  0.863063  0  .  1
   O  O49  1  0.437382  0.937382  0.250000  0  .  1
   O  O50  1  0.562618  0.437382  0.250000  0  .  1
   O  O51  1  0.937382  0.062619  0.250000  0  .  1
   O  O52  1  0.062619  0.562618  0.250000  0  .  1
   O  O53  1  0.562618  0.062619  0.750000  0  .  1
   O  O54  1  0.437382  0.562618  0.750000  0  .  1
   O  O55  1  0.062619  0.937382  0.750000  0  .  1
   O  O56  1  0.937382  0.437382  0.750000  0  .  1
   O  O57  1  0.691021  0.994136  0.136937  0  .  1
   O  O58  1  0.505864  0.691021  0.136937  0  .  1
   O  O59  1  0.994136  0.808979  0.136937  0  .  1
   O  O60  1  0.191021  0.005864  0.363063  0  .  1
   O  O61  1  0.308979  0.494136  0.363063  0  .  1
   O  O62  1  0.808979  0.505864  0.136937  0  .  1
   O  O63  1  0.494136  0.191021  0.363063  0  .  1
   O  O64  1  0.994136  0.691021  0.636937  0  .  1
 
