#\#CIF1.1
##########################################################################
#               Crystallographic Information Format file 
#               Produced by PyCifRW module
# 
#  This is a CIF file.  CIF has been adopted by the International
#  Union of Crystallography as the standard for data archiving and 
#  transmission.
#
#  For information on this file format, follow the CIF links at
#  http://www.iucr.org
##########################################################################

data_Ni(PO3)4
_symmetry_space_group_name_H-M          'P 1'
_cell_length_a                          7.39741980749
_cell_length_b                          7.39929864415
_cell_length_c                          10.0511692003
_cell_angle_alpha                       86.7547080948
_cell_angle_beta                        68.7959546574
_cell_angle_gamma                       115.533584849
_chemical_name_systematic               'Generated by pymatgen'
_symmetry_Int_Tables_number             1
_chemical_formula_structural            Ni(PO3)4
_chemical_formula_sum                   'Ni2 P8 O24'
_cell_volume                            447.805653934
_cell_formula_units_Z                   2
loop_
  _symmetry_equiv_pos_site_id
  _symmetry_equiv_pos_as_xyz
   1  'x, y, z'
 
loop_
  _atom_site_type_symbol
  _atom_site_label
  _atom_site_symmetry_multiplicity
  _atom_site_fract_x
  _atom_site_fract_y
  _atom_site_fract_z
  _atom_site_attached_hydrogens
  _atom_site_B_iso_or_equiv
  _atom_site_occupancy
   Ni  Ni1  1  0.000087  -0.000050  0.499932  0  .  1
   Ni  Ni2  1  -0.000017  0.499998  0.999971  0  .  1
   P  P3  1  0.261280  0.263219  0.984290  0  .  1
   P  P4  1  0.747628  0.245699  0.515325  0  .  1
   P  P5  1  0.999842  0.669476  0.312589  0  .  1
   P  P6  1  0.252366  0.754298  0.484681  0  .  1
   P  P7  1  0.738721  0.736793  0.015717  0  .  1
   P  P8  1  0.482305  0.312379  0.187379  0  .  1
   P  P9  1  0.517704  0.687625  0.812621  0  .  1
   P  P10  1  0.000145  0.330512  0.687418  0  .  1
   O  O11  1  0.473561  0.452463  0.848439  0  .  1
   O  O12  1  0.949100  0.330468  0.844144  0  .  1
   O  O13  1  0.050890  0.669521  0.155871  0  .  1
   O  O14  1  0.109752  0.339978  0.075014  0  .  1
   O  O15  1  0.085063  0.815387  0.575251  0  .  1
   O  O16  1  0.198565  0.677244  0.349020  0  .  1
   O  O17  1  0.046549  0.156857  0.643710  0  .  1
   O  O18  1  0.211428  0.548783  0.580451  0  .  1
   O  O19  1  0.371644  0.208845  0.079838  0  .  1
   O  O20  1  0.498672  0.906704  0.416319  0  .  1
   O  O21  1  0.526442  0.547537  0.151566  0  .  1
   O  O22  1  0.325384  0.206168  0.343925  0  .  1
   O  O23  1  0.300284  0.690270  0.856249  0  .  1
   O  O24  1  0.823084  0.914910  0.083922  0  .  1
   O  O25  1  0.176903  0.085090  0.916096  0  .  1
   O  O26  1  0.914930  0.184625  0.424748  0  .  1
   O  O27  1  0.674627  0.793826  0.656075  0  .  1
   O  O28  1  0.890261  0.660054  0.924982  0  .  1
   O  O29  1  0.501307  0.093283  0.583695  0  .  1
   O  O30  1  0.628362  0.791163  0.920166  0  .  1
   O  O31  1  0.788543  0.451235  0.419570  0  .  1
   O  O32  1  0.953454  0.843150  0.356279  0  .  1
   O  O33  1  0.801408  0.322744  0.650999  0  .  1
   O  O34  1  0.699727  0.309744  0.143747  0  .  1
 
