#\#CIF1.1
##########################################################################
#               Crystallographic Information Format file 
#               Produced by PyCifRW module
# 
#  This is a CIF file.  CIF has been adopted by the International
#  Union of Crystallography as the standard for data archiving and 
#  transmission.
#
#  For information on this file format, follow the CIF links at
#  http://www.iucr.org
##########################################################################

data_MgSi2SnO6
_symmetry_space_group_name_H-M          'P 1'
_cell_length_a                          5.44422884
_cell_length_b                          9.22368503
_cell_length_c                          19.40885693
_cell_angle_alpha                       90.0
_cell_angle_beta                        90.0
_cell_angle_gamma                       90.0
_chemical_name_systematic               'Generated by pymatgen'
_symmetry_Int_Tables_number             1
_chemical_formula_structural            MgSi2SnO6
_chemical_formula_sum                   'Mg8 Si16 Sn8 O48'
_cell_volume                            974.632288084
_cell_formula_units_Z                   8
loop_
  _symmetry_equiv_pos_site_id
  _symmetry_equiv_pos_as_xyz
   1  'x, y, z'
 
loop_
  _atom_site_type_symbol
  _atom_site_label
  _atom_site_symmetry_multiplicity
  _atom_site_fract_x
  _atom_site_fract_y
  _atom_site_fract_z
  _atom_site_attached_hydrogens
  _atom_site_B_iso_or_equiv
  _atom_site_occupancy
   Mg  Mg1  1  0.618877  0.150127  0.625852  0  .  1
   Mg  Mg2  1  0.381123  0.849873  0.374148  0  .  1
   Mg  Mg3  1  0.618877  0.650127  0.874148  0  .  1
   Mg  Mg4  1  0.118877  0.849873  0.874148  0  .  1
   Mg  Mg5  1  0.881123  0.150127  0.125852  0  .  1
   Mg  Mg6  1  0.381123  0.349873  0.125852  0  .  1
   Mg  Mg7  1  0.118877  0.349873  0.625852  0  .  1
   Mg  Mg8  1  0.881123  0.650127  0.374148  0  .  1
   Si  Si9  1  0.523803  0.659551  0.234523  0  .  1
   Si  Si10  1  0.694353  0.838990  0.516371  0  .  1
   Si  Si11  1  0.805647  0.838990  0.016371  0  .  1
   Si  Si12  1  0.976197  0.159551  0.765477  0  .  1
   Si  Si13  1  0.023803  0.340449  0.265477  0  .  1
   Si  Si14  1  0.476197  0.840449  0.734523  0  .  1
   Si  Si15  1  0.194353  0.661010  0.516371  0  .  1
   Si  Si16  1  0.694353  0.338990  0.983629  0  .  1
   Si  Si17  1  0.805647  0.338990  0.483629  0  .  1
   Si  Si18  1  0.976197  0.659551  0.734523  0  .  1
   Si  Si19  1  0.476197  0.340449  0.765477  0  .  1
   Si  Si20  1  0.523803  0.159551  0.265477  0  .  1
   Si  Si21  1  0.305647  0.161010  0.483629  0  .  1
   Si  Si22  1  0.023803  0.840449  0.234523  0  .  1
   Si  Si23  1  0.305647  0.661010  0.016371  0  .  1
   Si  Si24  1  0.194353  0.161010  0.983629  0  .  1
   Sn  Sn25  1  0.378297  0.968046  0.119605  0  .  1
   Sn  Sn26  1  0.621703  0.031954  0.880395  0  .  1
   Sn  Sn27  1  0.878297  0.031954  0.380395  0  .  1
   Sn  Sn28  1  0.121703  0.968046  0.619605  0  .  1
   Sn  Sn29  1  0.378297  0.468046  0.380395  0  .  1
   Sn  Sn30  1  0.621703  0.531954  0.619605  0  .  1
   Sn  Sn31  1  0.878297  0.531954  0.119605  0  .  1
   Sn  Sn32  1  0.121703  0.468046  0.880395  0  .  1
   O  O33  1  0.963179  0.504606  0.694747  0  .  1
   O  O34  1  0.228817  0.005562  0.946654  0  .  1
   O  O35  1  0.036821  0.495394  0.305253  0  .  1
   O  O36  1  0.706317  0.330283  0.068930  0  .  1
   O  O37  1  0.206317  0.169717  0.068930  0  .  1
   O  O38  1  0.931323  0.235434  0.957977  0  .  1
   O  O39  1  0.957506  0.660714  0.819672  0  .  1
   O  O40  1  0.042494  0.839286  0.319672  0  .  1
   O  O41  1  0.706317  0.830283  0.431070  0  .  1
   O  O42  1  0.957506  0.160714  0.680328  0  .  1
   O  O43  1  0.463179  0.495394  0.805253  0  .  1
   O  O44  1  0.793683  0.330283  0.568930  0  .  1
   O  O45  1  0.771183  0.994438  0.053346  0  .  1
   O  O46  1  0.457506  0.839286  0.819672  0  .  1
   O  O47  1  0.536821  0.004606  0.305253  0  .  1
   O  O48  1  0.228817  0.505562  0.553346  0  .  1
   O  O49  1  0.463179  0.995394  0.694747  0  .  1
   O  O50  1  0.231956  0.743233  0.709909  0  .  1
   O  O51  1  0.268044  0.743233  0.209909  0  .  1
   O  O52  1  0.568677  0.735434  0.042023  0  .  1
   O  O53  1  0.793683  0.830283  0.931070  0  .  1
   O  O54  1  0.542494  0.660714  0.319672  0  .  1
   O  O55  1  0.728817  0.494438  0.946654  0  .  1
   O  O56  1  0.231956  0.243233  0.790091  0  .  1
   O  O57  1  0.293683  0.169717  0.568930  0  .  1
   O  O58  1  0.542494  0.160714  0.180328  0  .  1
   O  O59  1  0.771183  0.494438  0.446654  0  .  1
   O  O60  1  0.206317  0.669717  0.431070  0  .  1
   O  O61  1  0.271183  0.505562  0.053346  0  .  1
   O  O62  1  0.731956  0.756767  0.709909  0  .  1
   O  O63  1  0.036821  0.995394  0.194747  0  .  1
   O  O64  1  0.768044  0.756767  0.209909  0  .  1
   O  O65  1  0.768044  0.256767  0.290091  0  .  1
   O  O66  1  0.728817  0.994438  0.553346  0  .  1
   O  O67  1  0.293683  0.669717  0.931070  0  .  1
   O  O68  1  0.271183  0.005562  0.446654  0  .  1
   O  O69  1  0.268044  0.243233  0.290091  0  .  1
   O  O70  1  0.068677  0.764566  0.042023  0  .  1
   O  O71  1  0.431323  0.764566  0.542023  0  .  1
   O  O72  1  0.731956  0.256767  0.790091  0  .  1
   O  O73  1  0.431323  0.264566  0.957977  0  .  1
   O  O74  1  0.568677  0.235434  0.457977  0  .  1
   O  O75  1  0.068677  0.264566  0.457977  0  .  1
   O  O76  1  0.457506  0.339286  0.680328  0  .  1
   O  O77  1  0.536821  0.504606  0.194747  0  .  1
   O  O78  1  0.931323  0.735434  0.542023  0  .  1
   O  O79  1  0.042494  0.339286  0.180328  0  .  1
   O  O80  1  0.963179  0.004606  0.805253  0  .  1
 
