#\#CIF1.1
##########################################################################
#               Crystallographic Information Format file 
#               Produced by PyCifRW module
# 
#  This is a CIF file.  CIF has been adopted by the International
#  Union of Crystallography as the standard for data archiving and 
#  transmission.
#
#  For information on this file format, follow the CIF links at
#  http://www.iucr.org
##########################################################################

data_MgV(GeO3)2
_symmetry_space_group_name_H-M          'P 1'
_cell_length_a                          5.27607057318
_cell_length_b                          6.71699518001
_cell_length_c                          6.7169953013
_cell_angle_alpha                       86.2174564095
_cell_angle_beta                        82.1889127143
_cell_angle_gamma                       82.1889070035
_chemical_name_systematic               'Generated by pymatgen'
_symmetry_Int_Tables_number             1
_chemical_formula_structural            MgV(GeO3)2
_chemical_formula_sum                   'Mg2 V2 Ge4 O12'
_cell_volume                            233.375236324
_cell_formula_units_Z                   2
loop_
  _symmetry_equiv_pos_site_id
  _symmetry_equiv_pos_as_xyz
   1  'x, y, z'
 
loop_
  _atom_site_type_symbol
  _atom_site_label
  _atom_site_symmetry_multiplicity
  _atom_site_fract_x
  _atom_site_fract_y
  _atom_site_fract_z
  _atom_site_attached_hydrogens
  _atom_site_B_iso_or_equiv
  _atom_site_occupancy
   Mg  Mg1  1  0.750000  0.269925  0.730075  0  .  1
   Mg  Mg2  1  0.250000  0.730075  0.269925  0  .  1
   V  V3  1  0.750000  0.908228  0.091772  0  .  1
   V  V4  1  0.250000  0.091772  0.908228  0  .  1
   Ge  Ge5  1  0.790457  0.396552  0.208751  0  .  1
   Ge  Ge6  1  0.709543  0.791249  0.603448  0  .  1
   Ge  Ge7  1  0.209543  0.603448  0.791249  0  .  1
   Ge  Ge8  1  0.290457  0.208751  0.396552  0  .  1
   O  O9  1  0.600350  0.290225  0.430107  0  .  1
   O  O10  1  0.899650  0.569893  0.709775  0  .  1
   O  O11  1  0.399650  0.709775  0.569893  0  .  1
   O  O12  1  0.100350  0.430107  0.290225  0  .  1
   O  O13  1  0.116280  0.144590  0.622770  0  .  1
   O  O14  1  0.383720  0.377230  0.855410  0  .  1
   O  O15  1  0.883720  0.855410  0.377230  0  .  1
   O  O16  1  0.616280  0.622770  0.144590  0  .  1
   O  O17  1  0.863099  0.213309  0.024846  0  .  1
   O  O18  1  0.636901  0.975154  0.786691  0  .  1
   O  O19  1  0.136901  0.786691  0.975154  0  .  1
   O  O20  1  0.363099  0.024846  0.213309  0  .  1
 
