#\#CIF1.1
##########################################################################
#               Crystallographic Information Format file 
#               Produced by PyCifRW module
# 
#  This is a CIF file.  CIF has been adopted by the International
#  Union of Crystallography as the standard for data archiving and 
#  transmission.
#
#  For information on this file format, follow the CIF links at
#  http://www.iucr.org
##########################################################################

data_CaFeO3
_symmetry_space_group_name_H-M          'P 1'
_cell_length_a                          5.37886834903
_cell_length_b                          5.44383438808
_cell_length_c                          7.61043443244
_cell_angle_alpha                       89.9939719003
_cell_angle_beta                        90.006501061
_cell_angle_gamma                       90.0012765011
_chemical_name_systematic               'Generated by pymatgen'
_symmetry_Int_Tables_number             1
_chemical_formula_structural            CaFeO3
_chemical_formula_sum                   'Ca4 Fe4 O12'
_cell_volume                            222.846215372
_cell_formula_units_Z                   4
loop_
  _symmetry_equiv_pos_site_id
  _symmetry_equiv_pos_as_xyz
   1  'x, y, z'
 
loop_
  _atom_site_type_symbol
  _atom_site_label
  _atom_site_symmetry_multiplicity
  _atom_site_fract_x
  _atom_site_fract_y
  _atom_site_fract_z
  _atom_site_attached_hydrogens
  _atom_site_B_iso_or_equiv
  _atom_site_occupancy
   Ca  Ca1  1  0.991518  0.043167  0.249999  0  .  1
   Ca  Ca2  1  0.491518  0.456828  0.750008  0  .  1
   Ca  Ca3  1  0.508482  0.543190  0.250000  0  .  1
   Ca  Ca4  1  0.008491  0.956816  0.750017  0  .  1
   Fe  Fe5  1  0.500021  0.999994  -0.000036  0  .  1
   Fe  Fe6  1  0.000028  0.500033  0.000012  0  .  1
   Fe  Fe7  1  0.000024  0.499952  0.499963  0  .  1
   Fe  Fe8  1  0.499973  0.000004  0.500006  0  .  1
   O  O9  1  0.926597  0.516467  0.750005  0  .  1
   O  O10  1  0.426603  0.983546  0.250052  0  .  1
   O  O11  1  0.573394  0.016456  0.749963  0  .  1
   O  O12  1  0.073390  0.483535  0.249997  0  .  1
   O  O13  1  0.709972  0.289255  0.461615  0  .  1
   O  O14  1  0.209998  0.210717  0.538386  0  .  1
   O  O15  1  0.790039  0.789243  0.038387  0  .  1
   O  O16  1  0.289976  0.710682  0.961614  0  .  1
   O  O17  1  0.709997  0.289290  0.038388  0  .  1
   O  O18  1  0.209950  0.210764  0.961620  0  .  1
   O  O19  1  0.290040  0.710759  0.538385  0  .  1
   O  O20  1  0.789989  0.789304  0.461619  0  .  1
 
