#\#CIF1.1
##########################################################################
#               Crystallographic Information Format file 
#               Produced by PyCifRW module
# 
#  This is a CIF file.  CIF has been adopted by the International
#  Union of Crystallography as the standard for data archiving and 
#  transmission.
#
#  For information on this file format, follow the CIF links at
#  http://www.iucr.org
##########################################################################

data_Mg2FeWO6
_symmetry_space_group_name_H-M          'P 1'
_cell_length_a                          5.61566669554
_cell_length_b                          5.61890606713
_cell_length_c                          7.64108481972
_cell_angle_alpha                       84.1938850277
_cell_angle_beta                        136.81068503
_cell_angle_gamma                       124.825760878
_chemical_name_systematic               'Generated by pymatgen'
_symmetry_Int_Tables_number             1
_chemical_formula_structural            Mg2FeWO6
_chemical_formula_sum                   'Mg2 Fe1 W1 O6'
_cell_volume                            112.131741087
_cell_formula_units_Z                   1
loop_
  _symmetry_equiv_pos_site_id
  _symmetry_equiv_pos_as_xyz
   1  'x, y, z'
 
loop_
  _atom_site_type_symbol
  _atom_site_label
  _atom_site_symmetry_multiplicity
  _atom_site_fract_x
  _atom_site_fract_y
  _atom_site_fract_z
  _atom_site_attached_hydrogens
  _atom_site_B_iso_or_equiv
  _atom_site_occupancy
   Mg  Mg1  1  0.003249  0.569328  0.296262  0  .  1
   Mg  Mg2  1  0.001021  0.570592  0.793908  0  .  1
   Fe  Fe3  1  0.004378  0.996608  0.507622  0  .  1
   W  W4  1  0.002038  0.977918  0.999019  0  .  1
   O  O5  1  0.725067  0.808593  0.096086  0  .  1
   O  O6  1  0.291186  0.087571  0.904503  0  .  1
   O  O7  1  0.637274  0.446830  0.369306  0  .  1
   O  O8  1  0.644681  0.085792  0.734369  0  .  1
   O  O9  1  0.290879  0.794871  0.196220  0  .  1
   O  O10  1  0.420045  0.503807  0.618530  0  .  1
 
