#\#CIF1.1
##########################################################################
#               Crystallographic Information Format file 
#               Produced by PyCifRW module
# 
#  This is a CIF file.  CIF has been adopted by the International
#  Union of Crystallography as the standard for data archiving and 
#  transmission.
#
#  For information on this file format, follow the CIF links at
#  http://www.iucr.org
##########################################################################

data_MgCr(SiO3)2
_symmetry_space_group_name_H-M          'P 1'
_cell_length_a                          5.31960796
_cell_length_b                          9.06804753
_cell_length_c                          18.59457002
_cell_angle_alpha                       90.0
_cell_angle_beta                        90.0
_cell_angle_gamma                       90.0
_chemical_name_systematic               'Generated by pymatgen'
_symmetry_Int_Tables_number             1
_chemical_formula_structural            MgCr(SiO3)2
_chemical_formula_sum                   'Mg8 Cr8 Si16 O48'
_cell_volume                            896.973381633
_cell_formula_units_Z                   8
loop_
  _symmetry_equiv_pos_site_id
  _symmetry_equiv_pos_as_xyz
   1  'x, y, z'
 
loop_
  _atom_site_type_symbol
  _atom_site_label
  _atom_site_symmetry_multiplicity
  _atom_site_fract_x
  _atom_site_fract_y
  _atom_site_fract_z
  _atom_site_attached_hydrogens
  _atom_site_B_iso_or_equiv
  _atom_site_occupancy
   Mg  Mg1  1  0.617769  0.153440  0.624444  0  .  1
   Mg  Mg2  1  0.382231  0.846560  0.375556  0  .  1
   Mg  Mg3  1  0.617769  0.653440  0.875556  0  .  1
   Mg  Mg4  1  0.117769  0.846560  0.875556  0  .  1
   Mg  Mg5  1  0.882231  0.153440  0.124444  0  .  1
   Mg  Mg6  1  0.382231  0.346560  0.124444  0  .  1
   Mg  Mg7  1  0.117769  0.346560  0.624444  0  .  1
   Mg  Mg8  1  0.882231  0.653440  0.375556  0  .  1
   Cr  Cr9  1  0.375560  0.981107  0.123607  0  .  1
   Cr  Cr10  1  0.624440  0.018893  0.876393  0  .  1
   Cr  Cr11  1  0.875560  0.018893  0.376393  0  .  1
   Cr  Cr12  1  0.124440  0.981107  0.623607  0  .  1
   Cr  Cr13  1  0.375560  0.481107  0.376393  0  .  1
   Cr  Cr14  1  0.624440  0.518893  0.623607  0  .  1
   Cr  Cr15  1  0.875560  0.518893  0.123607  0  .  1
   Cr  Cr16  1  0.124440  0.481107  0.876393  0  .  1
   Si  Si17  1  0.562858  0.661408  0.228020  0  .  1
   Si  Si18  1  0.712457  0.836237  0.524917  0  .  1
   Si  Si19  1  0.787543  0.836237  0.024917  0  .  1
   Si  Si20  1  0.937142  0.161408  0.771980  0  .  1
   Si  Si21  1  0.062858  0.338592  0.271980  0  .  1
   Si  Si22  1  0.437142  0.838592  0.728020  0  .  1
   Si  Si23  1  0.212457  0.663763  0.524917  0  .  1
   Si  Si24  1  0.712457  0.336237  0.975083  0  .  1
   Si  Si25  1  0.787543  0.336237  0.475083  0  .  1
   Si  Si26  1  0.937142  0.661408  0.728020  0  .  1
   Si  Si27  1  0.437142  0.338592  0.771980  0  .  1
   Si  Si28  1  0.562858  0.161408  0.271980  0  .  1
   Si  Si29  1  0.287543  0.163763  0.475083  0  .  1
   Si  Si30  1  0.062858  0.838592  0.228020  0  .  1
   Si  Si31  1  0.287543  0.663763  0.024917  0  .  1
   Si  Si32  1  0.212457  0.163763  0.975083  0  .  1
   O  O33  1  0.937368  0.501545  0.688951  0  .  1
   O  O34  1  0.294442  0.013269  0.934408  0  .  1
   O  O35  1  0.062632  0.498455  0.311049  0  .  1
   O  O36  1  0.710722  0.336585  0.063285  0  .  1
   O  O37  1  0.210722  0.163415  0.063285  0  .  1
   O  O38  1  0.921615  0.208645  0.948516  0  .  1
   O  O39  1  0.941826  0.666692  0.815230  0  .  1
   O  O40  1  0.058174  0.833308  0.315230  0  .  1
   O  O41  1  0.710722  0.836585  0.436715  0  .  1
   O  O42  1  0.941826  0.166692  0.684770  0  .  1
   O  O43  1  0.437368  0.498455  0.811049  0  .  1
   O  O44  1  0.789278  0.336585  0.563285  0  .  1
   O  O45  1  0.705558  0.986731  0.065592  0  .  1
   O  O46  1  0.441826  0.833308  0.815230  0  .  1
   O  O47  1  0.562632  0.001545  0.311049  0  .  1
   O  O48  1  0.294442  0.513269  0.565592  0  .  1
   O  O49  1  0.437368  0.998455  0.688951  0  .  1
   O  O50  1  0.166000  0.768772  0.696483  0  .  1
   O  O51  1  0.334000  0.768772  0.196483  0  .  1
   O  O52  1  0.578385  0.708645  0.051484  0  .  1
   O  O53  1  0.789278  0.836585  0.936715  0  .  1
   O  O54  1  0.558174  0.666692  0.315230  0  .  1
   O  O55  1  0.794442  0.486731  0.934408  0  .  1
   O  O56  1  0.166000  0.268772  0.803517  0  .  1
   O  O57  1  0.289278  0.163415  0.563285  0  .  1
   O  O58  1  0.558174  0.166692  0.184770  0  .  1
   O  O59  1  0.705558  0.486731  0.434408  0  .  1
   O  O60  1  0.210722  0.663415  0.436715  0  .  1
   O  O61  1  0.205558  0.513269  0.065592  0  .  1
   O  O62  1  0.666000  0.731228  0.696483  0  .  1
   O  O63  1  0.062632  0.998455  0.188951  0  .  1
   O  O64  1  0.834000  0.731228  0.196483  0  .  1
   O  O65  1  0.834000  0.231228  0.303517  0  .  1
   O  O66  1  0.794442  0.986731  0.565592  0  .  1
   O  O67  1  0.289278  0.663415  0.936715  0  .  1
   O  O68  1  0.205558  0.013269  0.434408  0  .  1
   O  O69  1  0.334000  0.268772  0.303517  0  .  1
   O  O70  1  0.078385  0.791355  0.051484  0  .  1
   O  O71  1  0.421615  0.791355  0.551484  0  .  1
   O  O72  1  0.666000  0.231228  0.803517  0  .  1
   O  O73  1  0.421615  0.291355  0.948516  0  .  1
   O  O74  1  0.578385  0.208645  0.448516  0  .  1
   O  O75  1  0.078385  0.291355  0.448516  0  .  1
   O  O76  1  0.441826  0.333308  0.684770  0  .  1
   O  O77  1  0.562632  0.501545  0.188951  0  .  1
   O  O78  1  0.921615  0.708645  0.551484  0  .  1
   O  O79  1  0.058174  0.333308  0.184770  0  .  1
   O  O80  1  0.937368  0.001545  0.811049  0  .  1
 
