#\#CIF1.1
##########################################################################
#               Crystallographic Information Format file 
#               Produced by PyCifRW module
# 
#  This is a CIF file.  CIF has been adopted by the International
#  Union of Crystallography as the standard for data archiving and 
#  transmission.
#
#  For information on this file format, follow the CIF links at
#  http://www.iucr.org
##########################################################################

data_Ca3Cu3(AsO4)4
_symmetry_space_group_name_H-M          'P 1'
_cell_length_a                          5.146026
_cell_length_b                          9.27211274565
_cell_length_c                          15.2086042647
_cell_angle_alpha                       96.3110380434
_cell_angle_beta                        90.0
_cell_angle_gamma                       90.0
_chemical_name_systematic               'Generated by pymatgen'
_symmetry_Int_Tables_number             1
_chemical_formula_structural            Ca3Cu3(AsO4)4
_chemical_formula_sum                   'Ca6 Cu6 As8 O32'
_cell_volume                            721.273737528
_cell_formula_units_Z                   2
loop_
  _symmetry_equiv_pos_site_id
  _symmetry_equiv_pos_as_xyz
   1  'x, y, z'
 
loop_
  _atom_site_type_symbol
  _atom_site_label
  _atom_site_symmetry_multiplicity
  _atom_site_fract_x
  _atom_site_fract_y
  _atom_site_fract_z
  _atom_site_attached_hydrogens
  _atom_site_B_iso_or_equiv
  _atom_site_occupancy
   Ca  Ca1  1  0.968244  0.036028  0.732816  0  .  1
   Ca  Ca2  1  0.468244  0.463972  0.767184  0  .  1
   Ca  Ca3  1  0.031756  0.963972  0.267184  0  .  1
   Ca  Ca4  1  0.531756  0.536028  0.232816  0  .  1
   Ca  Ca5  1  0.000000  0.000000  0.000000  0  .  1
   Ca  Ca6  1  0.500000  0.500000  0.500000  0  .  1
   Cu  Cu7  1  0.026497  0.328330  0.118856  0  .  1
   Cu  Cu8  1  0.973503  0.671670  0.881144  0  .  1
   Cu  Cu9  1  0.526497  0.171670  0.381144  0  .  1
   Cu  Cu10  1  0.473503  0.828330  0.618856  0  .  1
   Cu  Cu11  1  0.500000  0.500000  0.000000  0  .  1
   Cu  Cu12  1  0.000000  0.000000  0.500000  0  .  1
   As  As13  1  0.492320  0.879906  0.840313  0  .  1
   As  As14  1  0.006946  0.342395  0.906396  0  .  1
   As  As15  1  0.506946  0.157605  0.593604  0  .  1
   As  As16  1  0.493054  0.842395  0.406396  0  .  1
   As  As17  1  0.507680  0.120094  0.159687  0  .  1
   As  As18  1  0.993054  0.657605  0.093604  0  .  1
   As  As19  1  0.007680  0.379906  0.340313  0  .  1
   As  As20  1  0.992320  0.620094  0.659687  0  .  1
   O  O21  1  0.055873  0.575550  0.766655  0  .  1
   O  O22  1  0.564770  0.252420  0.504289  0  .  1
   O  O23  1  0.112615  0.250497  0.811253  0  .  1
   O  O24  1  0.094097  0.795954  0.650211  0  .  1
   O  O25  1  0.887385  0.749503  0.188747  0  .  1
   O  O26  1  0.444127  0.075550  0.266655  0  .  1
   O  O27  1  0.612615  0.249503  0.688747  0  .  1
   O  O28  1  0.812884  0.899848  0.398633  0  .  1
   O  O29  1  0.838055  0.509441  0.402927  0  .  1
   O  O30  1  0.944127  0.424450  0.233345  0  .  1
   O  O31  1  0.405903  0.295954  0.150211  0  .  1
   O  O32  1  0.187116  0.100152  0.601367  0  .  1
   O  O33  1  0.197034  0.503165  0.922504  0  .  1
   O  O34  1  0.161945  0.490559  0.597073  0  .  1
   O  O35  1  0.838763  0.104888  0.143589  0  .  1
   O  O36  1  0.338763  0.395112  0.356411  0  .  1
   O  O37  1  0.697034  0.996835  0.577496  0  .  1
   O  O38  1  0.387385  0.750497  0.311253  0  .  1
   O  O39  1  0.338055  0.990559  0.097073  0  .  1
   O  O40  1  0.312884  0.600152  0.101367  0  .  1
   O  O41  1  0.661237  0.604888  0.643589  0  .  1
   O  O42  1  0.161237  0.895112  0.856411  0  .  1
   O  O43  1  0.435230  0.747580  0.495711  0  .  1
   O  O44  1  0.064770  0.247580  0.995711  0  .  1
   O  O45  1  0.802966  0.496835  0.077496  0  .  1
   O  O46  1  0.555873  0.924450  0.733345  0  .  1
   O  O47  1  0.905903  0.204046  0.349789  0  .  1
   O  O48  1  0.661945  0.009441  0.902927  0  .  1
   O  O49  1  0.935230  0.752420  0.004289  0  .  1
   O  O50  1  0.687116  0.399848  0.898633  0  .  1
   O  O51  1  0.302966  0.003165  0.422504  0  .  1
   O  O52  1  0.594097  0.704046  0.849789  0  .  1
 
