#\#CIF1.1
##########################################################################
#               Crystallographic Information Format file 
#               Produced by PyCifRW module
# 
#  This is a CIF file.  CIF has been adopted by the International
#  Union of Crystallography as the standard for data archiving and 
#  transmission.
#
#  For information on this file format, follow the CIF links at
#  http://www.iucr.org
##########################################################################

data_Al2CuO4
_symmetry_space_group_name_H-M          'P 1'
_cell_length_a                          5.76384261546
_cell_length_b                          5.76384192712
_cell_length_c                          5.76384264
_cell_angle_alpha                       60.0000016478
_cell_angle_beta                        60.0000055984
_cell_angle_gamma                       60.0000031283
_chemical_name_systematic               'Generated by pymatgen'
_symmetry_Int_Tables_number             1
_chemical_formula_structural            Al2CuO4
_chemical_formula_sum                   'Al4 Cu2 O8'
_cell_volume                            135.400830214
_cell_formula_units_Z                   2
loop_
  _symmetry_equiv_pos_site_id
  _symmetry_equiv_pos_as_xyz
   1  'x, y, z'
 
loop_
  _atom_site_type_symbol
  _atom_site_label
  _atom_site_symmetry_multiplicity
  _atom_site_fract_x
  _atom_site_fract_y
  _atom_site_fract_z
  _atom_site_attached_hydrogens
  _atom_site_B_iso_or_equiv
  _atom_site_occupancy
   Al  Al1  1  0.500000  0.000000  0.500000  0  .  1
   Al  Al2  1  0.000000  0.500000  0.500000  0  .  1
   Al  Al3  1  0.500000  0.500000  0.000000  0  .  1
   Al  Al4  1  0.500000  0.500000  0.500000  0  .  1
   Cu  Cu5  1  0.125000  0.125000  0.125000  0  .  1
   Cu  Cu6  1  0.875000  0.875000  0.875000  0  .  1
   O  O7  1  0.735392  0.735392  0.735392  0  .  1
   O  O8  1  0.264608  0.264608  0.706175  0  .  1
   O  O9  1  0.264608  0.706175  0.264608  0  .  1
   O  O10  1  0.706175  0.264608  0.264608  0  .  1
   O  O11  1  0.735392  0.293825  0.735392  0  .  1
   O  O12  1  0.293825  0.735392  0.735392  0  .  1
   O  O13  1  0.264608  0.264608  0.264608  0  .  1
   O  O14  1  0.735392  0.735392  0.293825  0  .  1
 
