#\#CIF1.1
##########################################################################
#               Crystallographic Information Format file 
#               Produced by PyCifRW module
# 
#  This is a CIF file.  CIF has been adopted by the International
#  Union of Crystallography as the standard for data archiving and 
#  transmission.
#
#  For information on this file format, follow the CIF links at
#  http://www.iucr.org
##########################################################################

data_CaMn(SiO3)2
_symmetry_space_group_name_H-M          'P 1'
_cell_length_a                          5.47191129
_cell_length_b                          9.80344836
_cell_length_c                          19.19458332
_cell_angle_alpha                       90.0
_cell_angle_beta                        90.0
_cell_angle_gamma                       90.0
_chemical_name_systematic               'Generated by pymatgen'
_symmetry_Int_Tables_number             1
_chemical_formula_structural            CaMn(SiO3)2
_chemical_formula_sum                   'Ca8 Mn8 Si16 O48'
_cell_volume                            1029.66654522
_cell_formula_units_Z                   8
loop_
  _symmetry_equiv_pos_site_id
  _symmetry_equiv_pos_as_xyz
   1  'x, y, z'
 
loop_
  _atom_site_type_symbol
  _atom_site_label
  _atom_site_symmetry_multiplicity
  _atom_site_fract_x
  _atom_site_fract_y
  _atom_site_fract_z
  _atom_site_attached_hydrogens
  _atom_site_B_iso_or_equiv
  _atom_site_occupancy
   Ca  Ca1  1  0.613246  0.145329  0.622666  0  .  1
   Ca  Ca2  1  0.386754  0.854671  0.377334  0  .  1
   Ca  Ca3  1  0.613246  0.645329  0.877334  0  .  1
   Ca  Ca4  1  0.113246  0.854671  0.877334  0  .  1
   Ca  Ca5  1  0.886754  0.145329  0.122666  0  .  1
   Ca  Ca6  1  0.386754  0.354671  0.122666  0  .  1
   Ca  Ca7  1  0.113246  0.354671  0.622666  0  .  1
   Ca  Ca8  1  0.886754  0.645329  0.377334  0  .  1
   Mn  Mn9  1  0.383320  0.988874  0.126184  0  .  1
   Mn  Mn10  1  0.616680  0.011126  0.873816  0  .  1
   Mn  Mn11  1  0.883320  0.011126  0.373816  0  .  1
   Mn  Mn12  1  0.116680  0.988874  0.626184  0  .  1
   Mn  Mn13  1  0.383320  0.488874  0.373816  0  .  1
   Mn  Mn14  1  0.616680  0.511126  0.626184  0  .  1
   Mn  Mn15  1  0.883320  0.511126  0.126184  0  .  1
   Mn  Mn16  1  0.116680  0.488874  0.873816  0  .  1
   Si  Si17  1  0.557277  0.666225  0.226689  0  .  1
   Si  Si18  1  0.736177  0.831085  0.525391  0  .  1
   Si  Si19  1  0.763823  0.831085  0.025391  0  .  1
   Si  Si20  1  0.942723  0.166225  0.773311  0  .  1
   Si  Si21  1  0.057277  0.333775  0.273311  0  .  1
   Si  Si22  1  0.442723  0.833775  0.726689  0  .  1
   Si  Si23  1  0.236177  0.668915  0.525391  0  .  1
   Si  Si24  1  0.736177  0.331085  0.974609  0  .  1
   Si  Si25  1  0.763823  0.331085  0.474609  0  .  1
   Si  Si26  1  0.942723  0.666225  0.726689  0  .  1
   Si  Si27  1  0.442723  0.333775  0.773311  0  .  1
   Si  Si28  1  0.557277  0.166225  0.273311  0  .  1
   Si  Si29  1  0.263823  0.168915  0.474609  0  .  1
   Si  Si30  1  0.057277  0.833775  0.226689  0  .  1
   Si  Si31  1  0.263823  0.668915  0.025391  0  .  1
   Si  Si32  1  0.236177  0.168915  0.974609  0  .  1
   O  O33  1  0.928387  0.521294  0.686554  0  .  1
   O  O34  1  0.306311  0.033784  0.931196  0  .  1
   O  O35  1  0.071613  0.478706  0.313446  0  .  1
   O  O36  1  0.742323  0.345818  0.059604  0  .  1
   O  O37  1  0.242323  0.154182  0.059604  0  .  1
   O  O38  1  0.948022  0.213532  0.953549  0  .  1
   O  O39  1  0.958067  0.656676  0.811424  0  .  1
   O  O40  1  0.041933  0.843324  0.311424  0  .  1
   O  O41  1  0.742323  0.845818  0.440396  0  .  1
   O  O42  1  0.958067  0.156676  0.688576  0  .  1
   O  O43  1  0.428387  0.478706  0.813446  0  .  1
   O  O44  1  0.757677  0.345818  0.559604  0  .  1
   O  O45  1  0.693689  0.966216  0.068804  0  .  1
   O  O46  1  0.458067  0.843324  0.811424  0  .  1
   O  O47  1  0.571613  0.021294  0.313446  0  .  1
   O  O48  1  0.306311  0.533784  0.568804  0  .  1
   O  O49  1  0.428387  0.978706  0.686554  0  .  1
   O  O50  1  0.180427  0.759509  0.700967  0  .  1
   O  O51  1  0.319573  0.759509  0.200967  0  .  1
   O  O52  1  0.551978  0.713532  0.046451  0  .  1
   O  O53  1  0.757677  0.845818  0.940396  0  .  1
   O  O54  1  0.541933  0.656676  0.311424  0  .  1
   O  O55  1  0.806311  0.466216  0.931196  0  .  1
   O  O56  1  0.180427  0.259509  0.799033  0  .  1
   O  O57  1  0.257677  0.154182  0.559604  0  .  1
   O  O58  1  0.541933  0.156676  0.188576  0  .  1
   O  O59  1  0.693689  0.466216  0.431196  0  .  1
   O  O60  1  0.242323  0.654182  0.440396  0  .  1
   O  O61  1  0.193689  0.533784  0.068804  0  .  1
   O  O62  1  0.680427  0.740491  0.700967  0  .  1
   O  O63  1  0.071613  0.978706  0.186554  0  .  1
   O  O64  1  0.819573  0.740491  0.200967  0  .  1
   O  O65  1  0.819573  0.240491  0.299033  0  .  1
   O  O66  1  0.806311  0.966216  0.568804  0  .  1
   O  O67  1  0.257677  0.654182  0.940396  0  .  1
   O  O68  1  0.193689  0.033784  0.431196  0  .  1
   O  O69  1  0.319573  0.259509  0.299033  0  .  1
   O  O70  1  0.051978  0.786468  0.046451  0  .  1
   O  O71  1  0.448022  0.786468  0.546451  0  .  1
   O  O72  1  0.680427  0.240491  0.799033  0  .  1
   O  O73  1  0.448022  0.286468  0.953549  0  .  1
   O  O74  1  0.551978  0.213532  0.453549  0  .  1
   O  O75  1  0.051978  0.286468  0.453549  0  .  1
   O  O76  1  0.458067  0.343324  0.688576  0  .  1
   O  O77  1  0.571613  0.521294  0.186554  0  .  1
   O  O78  1  0.948022  0.713532  0.546451  0  .  1
   O  O79  1  0.041933  0.343324  0.188576  0  .  1
   O  O80  1  0.928387  0.021294  0.813446  0  .  1
 
