#\#CIF1.1
##########################################################################
#               Crystallographic Information Format file 
#               Produced by PyCifRW module
# 
#  This is a CIF file.  CIF has been adopted by the International
#  Union of Crystallography as the standard for data archiving and 
#  transmission.
#
#  For information on this file format, follow the CIF links at
#  http://www.iucr.org
##########################################################################

data_WO2
_symmetry_space_group_name_H-M          'P 1'
_cell_length_a                          5.05403743422
_cell_length_b                          5.05403717762
_cell_length_c                          5.05403704016
_cell_angle_alpha                       37.3976807668
_cell_angle_beta                        37.3976821162
_cell_angle_gamma                       37.3976850237
_chemical_name_systematic               'Generated by pymatgen'
_symmetry_Int_Tables_number             1
_chemical_formula_structural            WO2
_chemical_formula_sum                   'W1 O2'
_cell_volume                            42.6983861299
_cell_formula_units_Z                   1
loop_
  _symmetry_equiv_pos_site_id
  _symmetry_equiv_pos_as_xyz
   1  'x, y, z'
 
loop_
  _atom_site_type_symbol
  _atom_site_label
  _atom_site_symmetry_multiplicity
  _atom_site_fract_x
  _atom_site_fract_y
  _atom_site_fract_z
  _atom_site_attached_hydrogens
  _atom_site_B_iso_or_equiv
  _atom_site_occupancy
   W  W1  1  0.500002  0.499999  0.500000  0  .  1
   O  O2  1  0.763735  0.763732  0.763733  0  .  1
   O  O3  1  0.236268  0.236265  0.236266  0  .  1
 
