#\#CIF1.1
##########################################################################
#               Crystallographic Information Format file 
#               Produced by PyCifRW module
# 
#  This is a CIF file.  CIF has been adopted by the International
#  Union of Crystallography as the standard for data archiving and 
#  transmission.
#
#  For information on this file format, follow the CIF links at
#  http://www.iucr.org
##########################################################################

data_V(GeO3)2
_symmetry_space_group_name_H-M          'P 1'
_cell_length_a                          5.54936320946
_cell_length_b                          6.73614377931
_cell_length_c                          6.73614439077
_cell_angle_alpha                       83.5286069755
_cell_angle_beta                        76.1605122576
_cell_angle_gamma                       76.1605109328
_chemical_name_systematic               'Generated by pymatgen'
_symmetry_Int_Tables_number             1
_chemical_formula_structural            V(GeO3)2
_chemical_formula_sum                   'V2 Ge4 O12'
_cell_volume                            236.986532373
_cell_formula_units_Z                   2
loop_
  _symmetry_equiv_pos_site_id
  _symmetry_equiv_pos_as_xyz
   1  'x, y, z'
 
loop_
  _atom_site_type_symbol
  _atom_site_label
  _atom_site_symmetry_multiplicity
  _atom_site_fract_x
  _atom_site_fract_y
  _atom_site_fract_z
  _atom_site_attached_hydrogens
  _atom_site_B_iso_or_equiv
  _atom_site_occupancy
   V  V1  1  0.750000  0.895438  0.104562  0  .  1
   V  V2  1  0.250000  0.104562  0.895438  0  .  1
   Ge  Ge3  1  0.775907  0.384034  0.207312  0  .  1
   Ge  Ge4  1  0.724093  0.792688  0.615966  0  .  1
   Ge  Ge5  1  0.224093  0.615966  0.792688  0  .  1
   Ge  Ge6  1  0.275907  0.207312  0.384034  0  .  1
   O  O7  1  0.504272  0.345575  0.385468  0  .  1
   O  O8  1  0.995728  0.614532  0.654425  0  .  1
   O  O9  1  0.495728  0.654425  0.614532  0  .  1
   O  O10  1  0.004272  0.385468  0.345575  0  .  1
   O  O11  1  0.209978  0.088042  0.632196  0  .  1
   O  O12  1  0.290022  0.367805  0.911958  0  .  1
   O  O13  1  0.790022  0.911958  0.367805  0  .  1
   O  O14  1  0.709978  0.632196  0.088042  0  .  1
   O  O15  1  0.889506  0.178262  0.036569  0  .  1
   O  O16  1  0.610494  0.963431  0.821738  0  .  1
   O  O17  1  0.110494  0.821738  0.963431  0  .  1
   O  O18  1  0.389506  0.036569  0.178262  0  .  1
 
