#\#CIF1.1
##########################################################################
#               Crystallographic Information Format file 
#               Produced by PyCifRW module
# 
#  This is a CIF file.  CIF has been adopted by the International
#  Union of Crystallography as the standard for data archiving and 
#  transmission.
#
#  For information on this file format, follow the CIF links at
#  http://www.iucr.org
##########################################################################

data_MgW2O5
_symmetry_space_group_name_H-M          'P 1'
_cell_length_a                          3.2225844629
_cell_length_b                          5.23471433134
_cell_length_c                          12.5446114432
_cell_angle_alpha                       95.2263318988
_cell_angle_beta                        90.6966162606
_cell_angle_gamma                       89.4435578693
_chemical_name_systematic               'Generated by pymatgen'
_symmetry_Int_Tables_number             1
_chemical_formula_structural            MgW2O5
_chemical_formula_sum                   'Mg2 W4 O10'
_cell_volume                            210.715709243
_cell_formula_units_Z                   2
loop_
  _symmetry_equiv_pos_site_id
  _symmetry_equiv_pos_as_xyz
   1  'x, y, z'
 
loop_
  _atom_site_type_symbol
  _atom_site_label
  _atom_site_symmetry_multiplicity
  _atom_site_fract_x
  _atom_site_fract_y
  _atom_site_fract_z
  _atom_site_attached_hydrogens
  _atom_site_B_iso_or_equiv
  _atom_site_occupancy
   Mg  Mg1  1  0.771796  0.902679  0.223577  0  .  1
   Mg  Mg2  1  0.235285  0.104440  0.777318  0  .  1
   W  W3  1  0.257679  0.402334  0.103963  0  .  1
   W  W4  1  0.744087  0.601854  0.896302  0  .  1
   W  W5  1  0.739382  0.575874  0.612220  0  .  1
   W  W6  1  0.235798  0.415294  0.389141  0  .  1
   O  O7  1  0.748193  0.381963  0.742548  0  .  1
   O  O8  1  0.266962  0.617862  0.257442  0  .  1
   O  O9  1  0.750038  0.649213  0.058166  0  .  1
   O  O10  1  0.246890  0.342847  0.923693  0  .  1
   O  O11  1  0.727645  0.652111  0.462470  0  .  1
   O  O12  1  0.239933  0.347229  0.556154  0  .  1
   O  O13  1  0.766355  0.189210  0.348551  0  .  1
   O  O14  1  0.234498  0.802110  0.656664  0  .  1
   O  O15  1  0.739116  0.915341  0.836667  0  .  1
   O  O16  1  0.266394  0.068511  0.159216  0  .  1
 
