#\#CIF1.1
##########################################################################
#               Crystallographic Information Format file 
#               Produced by PyCifRW module
# 
#  This is a CIF file.  CIF has been adopted by the International
#  Union of Crystallography as the standard for data archiving and 
#  transmission.
#
#  For information on this file format, follow the CIF links at
#  http://www.iucr.org
##########################################################################

data_BaAlSn4O7
_symmetry_space_group_name_H-M          'P 1'
_cell_length_a                          6.10954154
_cell_length_b                          6.10954187737
_cell_length_c                          13.84818997
_cell_angle_alpha                       90.0
_cell_angle_beta                        90.0
_cell_angle_gamma                       120.000003588
_chemical_name_systematic               'Generated by pymatgen'
_symmetry_Int_Tables_number             1
_chemical_formula_structural            BaAlSn4O7
_chemical_formula_sum                   'Ba2 Al2 Sn8 O14'
_cell_volume                            447.652378713
_cell_formula_units_Z                   2
loop_
  _symmetry_equiv_pos_site_id
  _symmetry_equiv_pos_as_xyz
   1  'x, y, z'
 
loop_
  _atom_site_type_symbol
  _atom_site_label
  _atom_site_symmetry_multiplicity
  _atom_site_fract_x
  _atom_site_fract_y
  _atom_site_fract_z
  _atom_site_attached_hydrogens
  _atom_site_B_iso_or_equiv
  _atom_site_occupancy
   Ba  Ba1  1  0.666667  0.333333  0.451194  0  .  1
   Ba  Ba2  1  0.333333  0.666667  0.951194  0  .  1
   Al  Al3  1  0.666667  0.333333  0.874626  0  .  1
   Al  Al4  1  0.333333  0.666667  0.374626  0  .  1
   Sn  Sn5  1  0.829258  0.170743  0.200690  0  .  1
   Sn  Sn6  1  0.658514  0.829257  0.700691  0  .  1
   Sn  Sn7  1  0.170743  0.341486  0.700691  0  .  1
   Sn  Sn8  1  0.829258  0.658514  0.200690  0  .  1
   Sn  Sn9  1  0.341485  0.170743  0.200690  0  .  1
   Sn  Sn10  1  0.170743  0.829257  0.700691  0  .  1
   Sn  Sn11  1  0.000000  0.000000  0.440858  0  .  1
   Sn  Sn12  1  0.000000  0.000000  0.940858  0  .  1
   O  O13  1  0.815803  0.184198  0.961272  0  .  1
   O  O14  1  0.631605  0.815802  0.461271  0  .  1
   O  O15  1  0.184197  0.368394  0.461271  0  .  1
   O  O16  1  0.815804  0.631606  0.961272  0  .  1
   O  O17  1  0.368394  0.184198  0.961272  0  .  1
   O  O18  1  0.184197  0.815802  0.461271  0  .  1
   O  O19  1  0.000000  0.000000  0.794335  0  .  1
   O  O20  1  0.000000  0.000000  0.294336  0  .  1
   O  O21  1  0.493857  0.506145  0.295700  0  .  1
   O  O22  1  0.987711  0.493857  0.795700  0  .  1
   O  O23  1  0.506144  0.012289  0.795700  0  .  1
   O  O24  1  0.493857  0.987711  0.295700  0  .  1
   O  O25  1  0.506145  0.493857  0.795700  0  .  1
   O  O26  1  0.012289  0.506145  0.295700  0  .  1
 
