#\#CIF1.1
##########################################################################
#               Crystallographic Information Format file 
#               Produced by PyCifRW module
# 
#  This is a CIF file.  CIF has been adopted by the International
#  Union of Crystallography as the standard for data archiving and 
#  transmission.
#
#  For information on this file format, follow the CIF links at
#  http://www.iucr.org
##########################################################################

data_CaCrP2O7
_symmetry_space_group_name_H-M          'P 1'
_cell_length_a                          6.19330899092
_cell_length_b                          6.60406921591
_cell_length_c                          7.37992056618
_cell_angle_alpha                       81.9940753415
_cell_angle_beta                        88.3554190737
_cell_angle_gamma                       68.6207123918
_chemical_name_systematic               'Generated by pymatgen'
_symmetry_Int_Tables_number             1
_chemical_formula_structural            CaCrP2O7
_chemical_formula_sum                   'Ca2 Cr2 P4 O14'
_cell_volume                            278.25647122
_cell_formula_units_Z                   2
loop_
  _symmetry_equiv_pos_site_id
  _symmetry_equiv_pos_as_xyz
   1  'x, y, z'
 
loop_
  _atom_site_type_symbol
  _atom_site_label
  _atom_site_symmetry_multiplicity
  _atom_site_fract_x
  _atom_site_fract_y
  _atom_site_fract_z
  _atom_site_attached_hydrogens
  _atom_site_B_iso_or_equiv
  _atom_site_occupancy
   Ca  Ca1  1  0.296704  0.713344  0.635609  0  .  1
   Ca  Ca2  1  0.703297  0.286657  0.364391  0  .  1
   Cr  Cr3  1  0.267318  0.125560  0.171188  0  .  1
   Cr  Cr4  1  0.732684  0.874439  0.828812  0  .  1
   P  P5  1  0.164736  0.658306  0.117837  0  .  1
   P  P6  1  0.835262  0.341694  0.882163  0  .  1
   P  P7  1  0.235150  0.218953  0.620883  0  .  1
   P  P8  1  0.764851  0.781046  0.379116  0  .  1
   O  O9  1  0.075603  0.735088  0.917485  0  .  1
   O  O10  1  0.924398  0.264912  0.082515  0  .  1
   O  O11  1  0.253127  0.814294  0.196654  0  .  1
   O  O12  1  0.746872  0.185705  0.803346  0  .  1
   O  O13  1  0.336159  0.419664  0.144336  0  .  1
   O  O14  1  0.663843  0.580335  0.855665  0  .  1
   O  O15  1  0.638367  0.629041  0.452713  0  .  1
   O  O16  1  0.361632  0.370959  0.547288  0  .  1
   O  O17  1  0.099214  0.164941  0.477369  0  .  1
   O  O18  1  0.900785  0.835059  0.522631  0  .  1
   O  O19  1  0.061990  0.351252  0.767760  0  .  1
   O  O20  1  0.603783  -0.000052  0.271320  0  .  1
   O  O21  1  0.396219  0.000051  0.728681  0  .  1
   O  O22  1  0.938009  0.648749  0.232239  0  .  1
 
