#\#CIF1.1
##########################################################################
#               Crystallographic Information Format file 
#               Produced by PyCifRW module
# 
#  This is a CIF file.  CIF has been adopted by the International
#  Union of Crystallography as the standard for data archiving and 
#  transmission.
#
#  For information on this file format, follow the CIF links at
#  http://www.iucr.org
##########################################################################

data_CaCr4(CuO4)3
_symmetry_space_group_name_H-M          'P 1'
_cell_length_a                          6.40078501285
_cell_length_b                          6.40069315277
_cell_length_c                          6.40074217308
_cell_angle_alpha                       109.489001631
_cell_angle_beta                        109.457519076
_cell_angle_gamma                       109.471807049
_chemical_name_systematic               'Generated by pymatgen'
_symmetry_Int_Tables_number             1
_chemical_formula_structural            CaCr4(CuO4)3
_chemical_formula_sum                   'Ca1 Cr4 Cu3 O12'
_cell_volume                            201.856926456
_cell_formula_units_Z                   1
loop_
  _symmetry_equiv_pos_site_id
  _symmetry_equiv_pos_as_xyz
   1  'x, y, z'
 
loop_
  _atom_site_type_symbol
  _atom_site_label
  _atom_site_symmetry_multiplicity
  _atom_site_fract_x
  _atom_site_fract_y
  _atom_site_fract_z
  _atom_site_attached_hydrogens
  _atom_site_B_iso_or_equiv
  _atom_site_occupancy
   Ca  Ca1  1  0.000024  0.000001  0.000003  0  .  1
   Cr  Cr2  1  0.000036  0.000013  0.500037  0  .  1
   Cr  Cr3  1  0.000006  0.499994  0.999985  0  .  1
   Cr  Cr4  1  0.500003  0.500025  0.500025  0  .  1
   Cr  Cr5  1  0.500000  0.999987  -0.000017  0  .  1
   Cu  Cu6  1  0.500012  0.500015  0.000011  0  .  1
   Cu  Cu7  1  0.999986  0.499990  0.499995  0  .  1
   Cu  Cu8  1  0.499985  0.999989  0.499981  0  .  1
   O  O9  1  0.830418  0.311923  0.142197  0  .  1
   O  O10  1  0.169570  0.688071  0.857795  0  .  1
   O  O11  1  0.830458  0.688246  0.518482  0  .  1
   O  O12  1  0.311769  0.481533  0.169726  0  .  1
   O  O13  1  0.481527  0.169607  0.311794  0  .  1
   O  O14  1  0.142198  0.830390  0.311850  0  .  1
   O  O15  1  0.688273  0.857956  0.169741  0  .  1
   O  O16  1  0.518461  0.830382  0.688197  0  .  1
   O  O17  1  0.169535  0.311753  0.481507  0  .  1
   O  O18  1  0.688218  0.518469  0.830268  0  .  1
   O  O19  1  0.857786  0.169601  0.688146  0  .  1
   O  O20  1  0.311736  0.142055  0.830277  0  .  1
 
