#\#CIF1.1
##########################################################################
#               Crystallographic Information Format file 
#               Produced by PyCifRW module
# 
#  This is a CIF file.  CIF has been adopted by the International
#  Union of Crystallography as the standard for data archiving and 
#  transmission.
#
#  For information on this file format, follow the CIF links at
#  http://www.iucr.org
##########################################################################

data_CaTiO3
_symmetry_space_group_name_H-M          'P 1'
_cell_length_a                          5.40444906
_cell_length_b                          5.51303112
_cell_length_c                          7.69713264
_cell_angle_alpha                       90.0
_cell_angle_beta                        90.0
_cell_angle_gamma                       90.0
_chemical_name_systematic               'Generated by pymatgen'
_symmetry_Int_Tables_number             1
_chemical_formula_structural            CaTiO3
_chemical_formula_sum                   'Ca4 Ti4 O12'
_cell_volume                            229.335265385
_cell_formula_units_Z                   4
loop_
  _symmetry_equiv_pos_site_id
  _symmetry_equiv_pos_as_xyz
   1  'x, y, z'
 
loop_
  _atom_site_type_symbol
  _atom_site_label
  _atom_site_symmetry_multiplicity
  _atom_site_fract_x
  _atom_site_fract_y
  _atom_site_fract_z
  _atom_site_attached_hydrogens
  _atom_site_B_iso_or_equiv
  _atom_site_occupancy
   Ca  Ca1  1  0.991521  0.044799  0.249999  0  .  1
   Ca  Ca2  1  0.491521  0.455201  0.750000  0  .  1
   Ca  Ca3  1  0.508479  0.544800  0.249999  0  .  1
   Ca  Ca4  1  0.008479  0.955202  0.750000  0  .  1
   Ti  Ti5  1  0.500000  0.000000  0.000000  0  .  1
   Ti  Ti6  1  0.000000  0.499999  0.000000  0  .  1
   Ti  Ti7  1  0.000000  0.499999  0.500000  0  .  1
   Ti  Ti8  1  0.500000  0.000000  0.500000  0  .  1
   O  O9  1  0.921935  0.520580  0.750000  0  .  1
   O  O10  1  0.421935  0.979422  0.249999  0  .  1
   O  O11  1  0.578065  0.020579  0.750000  0  .  1
   O  O12  1  0.078065  0.479421  0.249999  0  .  1
   O  O13  1  0.707456  0.291917  0.459280  0  .  1
   O  O14  1  0.207456  0.208084  0.540721  0  .  1
   O  O15  1  0.792544  0.791916  0.040721  0  .  1
   O  O16  1  0.292544  0.708083  0.959279  0  .  1
   O  O17  1  0.707456  0.291917  0.040721  0  .  1
   O  O18  1  0.207456  0.208084  0.959279  0  .  1
   O  O19  1  0.292544  0.708083  0.540721  0  .  1
   O  O20  1  0.792544  0.791916  0.459280  0  .  1
 
